<?xml version="1.0" encoding="UTF-8"?>

<!-- generated on Tue 03 Mar 2020 11:06:56 CET by Eclipse SUMO netedit Version 1.4.0
<configuration xmlns:xsi="http://www.w3.org/2001/XMLSchema-instance" xsi:noNamespaceSchemaLocation="http://sumo.dlr.de/xsd/netconvertConfiguration.xsd">

    <input>
        <sumo-net-file value="/home/user/projects/sumo/aau/aau.net.xml"/>
    </input>

    <output>
        <output-file value="/home/user/projects/sumo/aau/aau.net.xml"/>
    </output>

    <processing>
        <geometry.min-radius.fix.railways value="false"/>
        <geometry.max-grade.fix value="false"/>
        <offset.disable-normalization value="true"/>
        <lefthand value="false"/>
    </processing>

    <junctions>
        <no-turnarounds value="true"/>
        <junctions.corner-detail value="5"/>
        <junctions.limit-turn-speed value="5.5"/>
        <rectangular-lane-cut value="false"/>
    </junctions>

    <pedestrian>
        <walkingareas value="false"/>
    </pedestrian>

    <netedit>
        <route-files value="/home/user/projects/sumo/aau/aau.rou.xml"/>
    </netedit>

    <report>
        <aggregate-warnings value="5"/>
    </report>

</configuration>
-->

<routes xmlns:xsi="http://www.w3.org/2001/XMLSchema-instance" xsi:noNamespaceSchemaLocation="http://sumo.dlr.de/xsd/routes_file.xsd">
    <vehicle id="0" depart="0.00">
        <route edges="88740132#2 156455478 -7867286#5 -7867286#4 -7867286#3 -7867286#2 -7867286#1 -7867286#0 26288728#0 26288728#1 26288728#2 306070185#0 306070185#1 453780270 366889198 366889196 366889195#0 366889195#1 366889195#2 366889195#3 8149020 366887884#1 8149004 366887889 366887888 8148997 495981781 132328633#0 132328633#1 132328633#2 132328633#3" color="yellow"/>
    </vehicle>
    <vehicle id="1" depart="1.00">
        <route edges="143978806#0 143978806#1 143978806#2 459098933#0 682803169#2 10240931#2 10240931#3 10240931#4 287131343 -306070184 -450237379 -450145510 -332679254#2 -332679254#1 -332679254#0 -145024130#2 -145024130#1 145024133 145024131#8 145024124#0 145024124#2 -25467642#3 -25467642#2 -25467642#1 -25467642#0 7867288#0 7867288#1 99321376 99321370#0 99321370#1" color="yellow"/>
    </vehicle>
    <vehicle id="2" depart="2.00">
        <route edges="-129861599#3 -129861599#1 -129861599#0 -132927095#1 9708416#0 9708416#1 9708416#2 9708416#3 9410733#0 9410733#1 366889201 143977559#2 143977559#3 10240935 682803170 459098934 -143978806#2 -39436350#7 -39436350#6 -39436350#5" color="yellow"/>
    </vehicle>
    <vehicle id="3" depart="3.00">
        <route edges="-9707255#1 -656737409#14 -656737409#13 -656737409#12 -656737409#11 -656737409#10 -656737409#9 -656737409#8 -656737409#7 -656737409#6 -656737409#5 -656737409#4 656737409#4" color="yellow"/>
    </vehicle>
    <vehicle id="4" depart="4.00">
        <route edges="-43943406 43796070#1 -43700590#3 -43700590#1 -43943411 26288728#1 26288728#2 306070185#0 306070185#1 453780270 366889198 366889196 366889195#0 366889195#1 366889195#2 366889195#3 8149020 366887884#1 366887884#2 366887884#3 28365844 366887885#0 366887885#1 8821674 132927100 28365870#2 28365870#3 28365870#4 9707250#0 9707250#1 134231322#1 9707251#1 9707260 132927093#0 -656737409#16 -656737409#15" color="yellow"/>
    </vehicle>
    <vehicle id="5" depart="5.00">
        <route edges="-133488402#2 548591376#1 548591376#2 548591376#3 548591376#5 548591376#6 548591376#7 9707265#1 9707263 398396659#1 398396659#2 398396662#1 132927097#1 -9707259#8 -9707259#7 628756726#1" color="yellow"/>
    </vehicle>
    <vehicle id="6" depart="6.00">
        <route edges="628756726#1 -628756726#1 9707259#7 9707259#8 132927097#2 132927097#3 9707251#6 9707268#0 9707268#1 9707268#2 28365870#6 9707248 9707249 132927095#1 129861599#0 129861599#1 129861599#3" color="yellow"/>
    </vehicle>
    <vehicle id="8" depart="8.00">
        <route edges="-143978698#8 -143978698#7 -143978698#6 -143978698#5 -143978698#3 -143978698#2 -143978698#0 102696285 52916590 9707265#7 9707265#0 9707265#1 9707263 398396659#1 398396659#2 398396662#1 132927097#1 -9707259#8 -9707259#7 -9707259#6 -9707259#5 -9707259#4 -9707259#3 -9707259#2 -9707259#0 9707253#1 9707256#0 9707256#1 9707256#2 -9707256#2" color="yellow"/>
    </vehicle>
    <vehicle id="9" depart="9.00">
        <route edges="628756726#2 -628756726#2 -628756726#1 9707259#7 132927094#1 132927094#2 132927099#2 398396661#1 398396661#2 9707265#3 9707265#4 9707265#5 9707266 -102696285 143978698#0 461000883" color="yellow"/>
    </vehicle>
    <vehicle id="10" depart="10.00">
        <route edges="9707512#0 9707512#1 -132328634#0 -9707510 -495981781 -8148997 72623026 366887887 366887890#1 366887884#3 28365844 366887885#0 366887885#1 366887885#2 366887885#3 8149021 143977559#1 143977559#2 143977559#3 10240935 682803170 459098934 -143978806#2 -39436350#7 -39436350#6 -39436350#5 -39436350#4 -39436350#3 -39436350#2 -39436350#1 39436350#1" color="yellow"/>
    </vehicle>
    <vehicle id="11" depart="11.00">
        <route edges="279255518#3 -112152227#5 -112152227#4 548591376#6 548591376#7 9707265#1 9707265#2 9707265#3 9707265#4 9707265#5 9707266 -102696285 143978698#0 143978698#2 143978698#3 143978698#5 143978698#6 143978698#7 143978698#8 143978698#9 143978700" color="yellow"/>
    </vehicle>
    <vehicle id="12" depart="12.00">
        <route edges="102696283 -30249577#2 -30249577#1 -30249577#0 -7867288#0 25467642#0 25467642#1 25467642#2 25467642#3 145024125#0 145024125#1 145024125#2 145024131#2 145024131#3 145024131#4 145024131#5 145024131#6 145024132 145024130#1 145024130#2 332679254#0 332679254#1 332679254#2 450145510 450237379 306070184 287131345 287131341 10240931#6 10240931#7 10240931#8 10240931#1 10240931#2 287131333 287131338 306070183 -333509813#6 -333509813#5 -333509813#4 -333509813#3 -333509813#2 -333509813#1 -333509813#0 -333509812 -25556932#4 -25556932#3 -25556932#2 -25556932#0" color="yellow"/>
    </vehicle>
    <vehicle id="13" depart="13.00">
        <route edges="-169227910#3 -169227910#2 -169227910#1 -543704495#1 -543704495#0 -91440676#7 -91440676#6 -91440676#4 -91440676#3 -91440676#1 -91440676#0 7867286#5 7867286#6 7867286#7 7867286#8 7867286#9 7867286#10 7867286#11 7867286#12 7867286#13 7867286#14 7867288#0 7867288#1 7867288#2 102696285 52916590 9707265#7 9707265#0 9707265#1 9707263 398396659#1 398396659#2 398396662#1 132927097#1 132927097#2 132927097#3 9707251#6 9707251#0 9707251#1 9707260 132927093#0 -656737409#16 -656737409#15 -656737409#14 -656737409#13 -656737409#12 -656737409#11 -656737409#10 -656737409#9 -656737409#8 -656737409#7 -656737409#6 -656737409#5 -656737409#4 132695021" color="yellow"/>
    </vehicle>
    <vehicle id="14" depart="14.00">
        <route edges="388148174#0 -296426883 -296426885#1 -296426885#0 -388148177#0 -296426884#0 398396661#1 398396661#2 9707265#3 9707265#4 9707265#5 9707266 -102696285 -7867288#2 -7867288#1 -7867288#0 25467642#0 25467642#1 25467642#2 25467642#3 145024125#0 145024125#1 145024125#2 145024131#2 145024131#3 145024131#4 145024131#5 145024131#6 145024132 145024130#1 145024130#2 332679254#0 332679254#1 332679254#2 450145510 450237379 306070184 287131345 287131341 10240931#6 10240931#7 10240931#8 10240931#1 10240931#2 287131333 287131338 306070183 143976817#0 38673850#0 -332243842#2 332243842#2" color="yellow"/>
    </vehicle>
    <vehicle id="15" depart="15.00">
        <route edges="-103460157#2 -103460157#1 -9708416#1 -9708416#0 -9707249 28365876 28365870#0 28365870#1 28365870#2 28365870#3 28365870#4 9707250#0 9707250#1 134231322#1 9707251#1 9707251#2 9707251#3 9707251#4 9707262 132927094#1 132927094#2 132927099#2 398396661#1 398396661#2 9707265#3 9707265#4 9707265#5 9707265#6 9707265#7 27802172#0 27802172#1 112152227#4 112152227#5 -279255518#3 -279255518#2 279255518#2" color="yellow"/>
    </vehicle>
    <vehicle id="16" depart="16.00">
        <route edges="-9707259#4 9707259#4 9707259#5 9707259#6 9707259#7 9707259#8 132927097#2 132927097#3 9707251#6 9707268#0 9707268#1 9707268#2 28365870#6 9707248 9707249 132927095#1 129861599#0 129861599#1 129861605#0 129861606#0 129861600" color="yellow"/>
    </vehicle>
    <vehicle id="17" depart="17.00">
        <route edges="388148174#0 -296426883 -296426885#1 -296426885#0 -388148177#0 -296426884#0 398396661#1 398396661#2 9707265#3 9707265#4 9707265#5 9707266 -102696285 -7867288#2 -7867288#1 -7867288#0" color="yellow"/>
    </vehicle>
    <vehicle id="19" depart="19.00">
        <route edges="26288728#0 -26288728#0 7867286#0 7867286#1 7867286#2 7867286#3 7867286#4 7867286#5 7867286#6 7867286#7 7867286#8 7867286#9 7867286#10 7867286#11 7867286#12 7867286#13 7867286#14 7867288#0 7867288#1 7867288#2 102696285 52916590 9707265#7 27802172#0 27802172#1 27802172#2 27802172#4 133488399#2" color="yellow"/>
    </vehicle>
    <vehicle id="20" depart="20.00">
        <route edges="306070184 287131345 287131341 10240931#6 10240931#7 10240931#8 682803172 682803171#0 10240932#1 366889195#1 366889195#2 366889195#3 366889197 143977559#0 366889200 -9410733#1 -9410733#0 -9708416#3 -9708416#2 -9708416#1 -9708416#0 132927095#1 169780591#1" color="yellow"/>
    </vehicle>
    <vehicle id="21" depart="21.00">
        <route edges="477737242#0 -129861605#1 -129861605#0 -129861599#1 -129861599#0 -132927095#1 9708416#0 9708416#1 9708416#2 9708416#3 9410733#0 9410733#1 366889201 143977559#2 143977559#3 366889196 366889195#0 366889195#1 366889195#2 366889195#3" color="yellow"/>
    </vehicle>
    <vehicle id="22" depart="22.00">
        <route edges="124485876#2 -124485876#2 -124485876#0 525382294 9707265#5 9707265#6 9707265#7 9707265#0 9707265#1 9707263 398396659#1 398396659#2 398396662#1 132927097#1 132927097#2 132927097#3 9707251#6 9707251#0 9707251#1 9707260 132927093#0 -656737409#16 -656737409#15 -656737409#14 -656737409#13 -656737409#12 -656737409#11 -656737409#10 -656737409#9 -656737409#8 -656737409#7 -656737409#6 -656737409#5 -656737409#4 -656737409#3 -656737409#1 -656737409#0 -283862520#2 -283862520#1 -283862520#0 -132695023 130657887#3 130657887#4 130657887#5 130657887#6 130657887#7 130657887#8" color="yellow"/>
    </vehicle>
    <vehicle id="24" depart="24.00">
        <route edges="31968817 39436350#1 39436350#2 39436350#3 39436350#4 39436350#5 39436350#6 39436350#7 143978806#2 459098933#0 10240932#1 366889195#1 366889195#2 366889195#3 8149020 366887884#1 366887884#2 366887884#3 28365844 366887885#0 366887885#1 8821674 132927100 28365870#2 28365870#3 28365870#4 9707250#0 9707250#1 134231322#1 9707251#1 9707260 132927093#0 -656737409#16 -656737409#15 -656737409#14 -656737409#13 -656737409#12 -656737409#11 -656737409#10 -656737409#9 -656737409#8 -656737409#7 -656737409#6 -656737409#5 -656737409#4 -656737409#3 -656737409#1 -656737409#0 -283862520#2 -283862520#1 -283862520#0 -132695023 -130657890#2" color="yellow"/>
    </vehicle>
    <vehicle id="25" depart="25.00">
        <route edges="-133488399#2 548591376#3 548591376#5 548591376#6 548591376#7 9707265#1 9707265#2 9707265#3 525382296 124485876#0 124485876#2 129861595#0 129861595#1 129861595#2 129861595#3 129861595#4 -494838126 -494838127#2 -494838127#1" color="yellow"/>
    </vehicle>
    <vehicle id="26" depart="26.00">
        <route edges="130657886#0 283862520#0 283862520#1 283862520#2 283862520#3 656737409#1 656737409#3 656737409#4 656737409#5 656737409#6 656737409#7 656737409#8 656737409#9 656737409#10 656737409#11 656737409#12 656737409#13 656737409#14 656737409#15 132927091#1 132927098 9707251#3 9707251#4 9707262 132927094#1 132927094#2 132927099#2 398396661#1 398396661#2 9707265#3 9707265#4 9707265#5 9707266 -102696285 -7867288#2 -7867288#1 -7867288#0 -7867286#14 -7867286#13 -7867286#12 -7867286#11 -7867286#10 -7867286#9 -7867286#8 -7867286#7 -7867286#6 -7867286#5 91440676#0 91440676#1 91440676#3 91440676#4 91440676#6 91440676#7 543704495#0 543704495#1 543704495#2 543704495#3" color="yellow"/>
    </vehicle>
    <vehicle id="27" depart="27.00">
        <route edges="-143976817#6 -143976817#5 -143976817#4 -143976817#3 -143976817#2 -143976817#1 -143976817#0 -306070183 -287131338 287131336 10240931#4 287131343 -306070184 -450237379 -450145510 -332679254#2 -332679254#1 -332679254#0 -145024130#2 -145024130#1 145024133 145024131#8 145024124#0 145024124#2 -25467642#3 -25467642#2 -25467642#1 -25467642#0 -7867286#14 -7867286#13 -7867286#12 7867286#12" color="yellow"/>
    </vehicle>
    <vehicle id="28" depart="28.00">
        <route edges="28365870#1 28365870#2 28365870#3 28365870#4 9707250#0 9707250#1 134231322#1 9707251#1 9707251#2 9707251#3 9707251#4 9707262 132927094#1 132927094#2 132927099#2 296426884#0 388148177#0 296426885#0 296426885#1 296426885#2 296426882 -388148176#0" color="yellow"/>
    </vehicle>
    <vehicle id="30" depart="30.00">
        <route edges="-130657887#3 132695023 283862520#0 283862520#1 283862520#2 283862520#3 656737409#1 656737409#3 656737409#4 656737409#5 656737409#6 656737409#7 656737409#8 656737409#9 656737409#10 656737409#11 656737409#12 656737409#13 656737409#14 656737409#15 132927091#1 132927098 9707251#3 9707251#4 9707262 -9707259#7 -9707259#6 -9707259#5 -9707259#4 -9707259#3 -9707259#2 -9707259#0 9707253#1 9707253#2 9707253#3" color="yellow"/>
    </vehicle>
    <vehicle id="31" depart="31.00">
        <route edges="-503980305#1 -503980308 -388148177#1 -388148177#0 -296426884#0 398396661#1 398396661#2 9707265#3 525382296 124485876#0 124485876#2 124485876#4" color="yellow"/>
    </vehicle>
    <vehicle id="32" depart="32.00">
        <route edges="678874737#0 678874737#1 -678874737#1 112152740 112152743#2 -143978698#0 -7867288#2 -7867288#1 -7867288#0 -7867286#14 -7867286#13 -7867286#12 -7867286#11 -7867286#10 -7867286#9 -7867286#8 -7867286#7 -7867286#6 -7867286#5 -7867286#4 -7867286#3 -7867286#2 43796072 43796100#4 43796100#5 43796100#6" color="yellow"/>
    </vehicle>
    <vehicle id="33" depart="33.00">
        <route edges="-503980305#1 -503980308 -388148177#1 -388148177#0 -296426884#0 398396661#1 398396661#2 9707265#3 9707265#4 9707265#5 9707266 -102696285 -7867288#2 -7867288#1 -7867288#0 25467642#0 25467642#1 25467642#2 25467642#3 145024125#0 145024125#1 145024125#2 145024131#2 145024131#3 145024131#4 145024131#5 145024131#6 145024132 145024130#1 145024130#2 332679254#0 332679254#1 332679254#2 450145510 450237379 306070184 287131345 287131341 10240931#6 10240931#7 10240931#8 682803172 682803171#0 459098934 -143978806#2 -39436350#7 -39436350#6 -39436350#5 -39436350#4 -39436350#3 -39436350#2 -39436350#1 -39436350#0" color="yellow"/>
    </vehicle>
    <vehicle id="34" depart="34.00">
        <route edges="-461000883 -143978698#0 -7867288#2 -7867288#1 -7867288#0 -7867286#14 -7867286#13 -7867286#12 -7867286#11 -7867286#10 -7867286#9 -7867286#8 -7867286#7 -7867286#6 -7867286#5 91440676#0 91440676#1 -133482170#1 -133482170#0" color="yellow"/>
    </vehicle>
    <vehicle id="35" depart="35.00">
        <route edges="-9707255#1 656737409#15 132927091#1 132927098 9707251#3 9707251#4 9707262 132927094#1 132927094#2 132927099#2 398396661#1 398396661#2 9707265#3 9707265#4 9707265#5 9707266 -102696285 -7867288#2 -7867288#1 30249577#0 30249577#1 30249577#2 -102696283" color="yellow"/>
    </vehicle>
    <vehicle id="37" depart="37.00">
        <route edges="678874737#0 678874737#1 -678874737#1 112152740 112152743#2 -143978698#0 102696285 52916590 9707265#7 9707265#0 9707265#1 9707265#2 9707265#3 525382296 124485876#0 124485876#2 129861595#0 129861595#1 129861595#2 129861595#3 129861595#4 129861595#6" color="yellow"/>
    </vehicle>
    <vehicle id="38" depart="38.00">
        <route edges="7867286#14 7867288#0 7867288#1 7867288#2 102696285 52916590 9707265#7 9707265#0 9707265#1 9707263 398396659#1 398396659#2 398396662#1 132927097#1 132927097#2 132927097#3 9707251#6 9707251#0 9707251#1 9707260 132927093#0 -656737409#16 -656737409#15 -656737409#14 -656737409#13 -656737409#12 -656737409#11 -656737409#10 -656737409#9 132695022" color="yellow"/>
    </vehicle>
    <vehicle id="39" depart="39.00">
        <route edges="143978806#0 143978806#1 143978806#2 459098933#0 682803169#2 10240931#2 10240931#3 10240931#4 287131343 -306070184 -450237379 -450145510 -332679254#2 -332679254#1 -332679254#0 -145024130#2 -145024130#1 145024133 145024131#8 145024124#0 145024124#2 -25467642#3 -25467642#2 -25467642#1 -25467642#0 7867288#0 7867288#1 99321376 398326851 -398326851" color="yellow"/>
    </vehicle>
    <vehicle id="40" depart="40.00">
        <route edges="-332243841 332243841 333509813#2 333509813#3 333509813#4 333509813#5 333509813#6 -306070183 -287131338 287131336 10240931#4 10240931#5 10240931#6 10240931#7 10240931#8 682803172 682803171#0 10240932#1 366889195#1 366889195#2 366889195#3 366889197 143977559#0 366889200 -9410733#1 -9410733#0 -9708416#3 -9410732#15 -9410732#14 -9410732#13 -9410732#12 -9410732#11 -9410732#10 -9410732#9" color="yellow"/>
    </vehicle>
    <vehicle id="43" depart="43.00">
        <route edges="494838125#1 494838125#2 494838125#3 494838125#4" color="yellow"/>
    </vehicle>
    <vehicle id="47" depart="47.00">
        <route edges="38673851#3 -38673851#3 -38673851#2 38673853#0 332243841 333509813#2 333509813#3 333509813#4 333509813#5 333509813#6 -306070183 -287131338 287131336 10240931#4 10240931#5 10240931#6 10240931#7 10240931#8 682803172 682803171#0 10240932#1 366889195#1 366889195#2 366889195#3 8149020 366887884#1 366887884#2 366887884#3 28365844 366887885#0 366887885#1 8821674 132927100 28365870#2 28365870#3 28365870#4 9707250#0 9707250#1 134231322#1 9707251#1 9707260 132927093#0 -656737409#16 -656737409#15 -656737409#14 -656737409#13 -656737409#12 -656737409#11 -9707252" color="yellow"/>
    </vehicle>
    <vehicle id="48" depart="48.00">
        <route edges="-43761230#3 -43943413#2 -43943413#0 -43796100#5 -43796100#4 -43796072 7867286#2 7867286#3 7867286#4 7867286#5 7867286#6 7867286#7 7867286#8 7867286#9 7867286#10 7867286#11 7867286#12 7867286#13 7867286#14 7867288#0 7867288#1 7867288#2 102696285 52916590 9707265#7 9707265#0 9707265#1 9707263 398396659#1 296426884#0 388148177#0 296426885#0 296426885#1 296426883 388148174#1" color="yellow"/>
    </vehicle>
    <vehicle id="50" depart="50.00">
        <route edges="333509813#1 333509813#2 333509813#3 333509813#4 333509813#5 333509813#6 -306070183 -287131338 287131336 10240931#4 287131343 -306070184 -450237379 -450145510 -332679254#2 -332679254#1 -332679254#0 -145024130#2 -145024130#1 145024133 145024131#8 145024124#0 145024124#2 -25467642#3 -25467642#2 -25467642#1 -25467642#0 7867288#0 30249577#0 30249577#1 30249577#2 30249577#3 25516433#0 25516433#1 -25516433#1" color="yellow"/>
    </vehicle>
    <vehicle id="52" depart="52.00">
        <route edges="143976817#6 -143976817#6 -143976817#5 -143976817#4 -143976817#3 -143976817#2 -143976817#1 -143976817#0 -306070183 -287131338 287131336 10240931#4 287131343 -306070184 -450237379 -450145510 -332679254#2 -332679254#1 -332679254#0 -145024130#2 -145024130#1 145024133 145024131#8 145024124#0 145024124#2 -25467642#3 -25467642#2 -25467642#1" color="yellow"/>
    </vehicle>
    <vehicle id="54" depart="54.00">
        <route edges="682803171#0 459098934 -143978806#2 -39436350#7 -39436350#6 -39436350#5 -39436350#4 -39436350#3 -39436350#2 -39436350#1 -39436350#0" color="yellow"/>
    </vehicle>
    <vehicle id="56" depart="56.00">
        <route edges="296426883 -296426883 -296426885#1 -296426885#0 -388148177#0 -296426884#0 398396659#2 398396662#1 132927097#1 132927097#2 132927097#3 9707251#6 9707251#0 9707251#1 9707260 132927093#0 -656737409#16 -656737409#15 -656737409#14 -656737409#13 -656737409#12 -656737409#11 -9707252" color="yellow"/>
    </vehicle>
    <vehicle id="58" depart="58.00">
        <route edges="25467642#0 -25467642#0 7867288#0 7867288#1 7867288#2 102696285 52916590 9707265#7 9707265#0 9707265#1 9707263 398396659#1 398396659#2 398396662#1 132927097#1 -9707259#8 -9707259#7 -9707259#6 -9707259#5 -9707259#4 -9707259#3 -9707259#2 -9707259#0 9707253#1 -9707253#1" color="yellow"/>
    </vehicle>
    <vehicle id="59" depart="59.00">
        <route edges="-132328633#0 -495981781 -8148997 72623026 366887887 366887890#1 366887884#3 28365844 366887885#0 366887885#1 8821674 132927100 28365870#2 28365870#3 28365870#4 9707250#0 9707250#1 134231322#1 9707251#1 9707260 132927093#0 132927093#1 132927096 132927091#0" color="yellow"/>
    </vehicle>
    <vehicle id="60" depart="60.00">
        <route edges="38718246#0 -38718246#0 25556932#4 333509812 333509813#0 333509813#1 333509813#2 333509813#3 333509813#4 333509813#5 333509813#6 -306070183 -287131338 287131336 10240931#4 287131343 -306070184 -450237379 -450145510 -332679254#2 -332679254#1 -332679254#0 -145024130#2 -145024130#1 145024133 145024131#8 145024124#0 145024124#2 -25467642#3 -25467642#2 -25467642#1 -25467642#0 7867288#0 7867288#1 7867288#2 143978698#0 -112152743#2 -112152740 678874737#1" color="yellow"/>
    </vehicle>
    <vehicle id="61" depart="61.00">
        <route edges="-25556932#3 25556932#3 25556932#4 333509812 333509813#0 333509813#1 333509813#2 333509813#3 333509813#4 333509813#5 333509813#6 -306070183 -287131338 287131336 10240931#4 287131343 -306070184 -450237379 -450145510 -332679254#2 -332679254#1 -332679254#0 -145024130#2 -145024130#1 145024133 145024131#8 145024124#0 145024124#2 -25467642#3 -25467642#2 -25467642#1 -25467642#0 7867288#0 30249577#0 30249577#1 30249577#2 30249577#3 -143978698#7 -143978698#6 -143978698#5 -112152741" color="yellow"/>
    </vehicle>
    <vehicle id="62" depart="62.00">
        <route edges="-43796100#5 -43796100#4 -43796072 -7867286#1 -7867286#0 26288728#0 26288728#1 26288728#2 306070185#0 306070185#1 453780270 366889198 10240935 682803170 459098934 -143978806#2 -39436350#7 -39436350#6 -39436350#5 -39436350#4 39436350#4" color="yellow"/>
    </vehicle>
    <vehicle id="63" depart="63.00">
        <route edges="38673851#2 -38673851#2 38673853#0 332243841 333509813#2 333509813#3 333509813#4 333509813#5 333509813#6 -306070183 -287131338 287131336 10240931#4 10240931#5 10240931#6 10240931#7 10240931#8 682803172 682803171#0 10240932#1 366889195#1 366889195#2 366889195#3 8149020 366887884#1 366887884#2 366887884#3 28365844 366887885#0 366887885#1 8821674 132927100 28365870#2 28365870#3 28365870#4 9707250#0 9707250#1 134231322#1 9707251#1 9707260 132927093#0 -656737409#16 -656737409#15 -656737409#14 -656737409#13 -656737409#12 -656737409#11 -656737409#10 -656737409#9" color="yellow"/>
    </vehicle>
    <vehicle id="65" depart="65.00">
        <route edges="143978806#0 143978806#1 143978806#2 459098933#0 682803169#2 10240931#2 10240931#3 10240931#4 287131343 -306070184 -450237379 -450145510 -332679254#2 -332679254#1 -332679254#0 -145024130#2 -145024130#1 145024133 145024131#8 145024124#0 145024124#2 -25467642#3 -25467642#2 -25467642#1 -25467642#0 7867288#0 7867288#1 7867288#2 102696285 52916590 9707265#7 9707265#0 9707265#1 9707263 398396659#1 296426884#0 -494838125#6 494838125#0" color="yellow"/>
    </vehicle>
    <vehicle id="66" depart="66.00">
        <route edges="-136525944#3 -136525944#2 -136525944#1 -136525944#0 129861602#0 129861602#1 -132927095#1 9708416#0 9708416#1 9708416#2 9708416#3 9410733#0 9410733#1 366889201 143977559#2 143977559#3 10240935 682803170 682803169#2 10240931#2 10240931#3 10240931#4 10240931#5 10240931#6 287131331" color="yellow"/>
    </vehicle>
    <vehicle id="68" depart="68.00">
        <route edges="-129861603#2 -129861603#1 -129861603#0 -129861606#1 -129861606#0 -129861605#0 -129861599#1 -129861599#0 -132927095#1 9708416#0 9708416#1 9708416#2 9708416#3 9410733#0 9410733#1 366889201 143977559#2 366889199 -453780270 -306070185#1 -306070185#0 -26288728#2 -26288728#1 -26288728#0 7867286#0 7867286#1 7867286#2 7867286#3 7867286#4 91440676#0 91440676#1 91440676#3 91440676#4 91440676#6 91440676#7 543704495#0 543704495#1 169227910#1 169227910#2 169227910#3" color="yellow"/>
    </vehicle>
    <vehicle id="70" depart="70.00">
        <route edges="333509813#4 333509813#5 333509813#6 -306070183 -287131338 287131336 10240931#4 10240931#5 10240931#6 10240931#7 10240931#8 682803172 682803171#0 10240932#1 366889195#1 366889195#2 366889195#3 8149020 366887884#1 8149004 366887889 366887888 8148997 495981781 132328633#0 132328633#1 132328633#2 132328633#3" color="yellow"/>
    </vehicle>
    <vehicle id="72" depart="72.00">
        <route edges="9708416#2 9708416#3 9410733#0 9410733#1 366889201 143977559#2 143977559#3 10240935 682803170 682803169#2 10240931#2 287131333 287131338 306070183 -306070183" color="yellow"/>
    </vehicle>
    <vehicle id="74" depart="74.00">
        <route edges="112152741 143978698#5 143978698#6 143978698#7 -30249577#3 -30249577#2 -30249577#1 -30249577#0 -7867288#0 25467642#0 25467642#1 25467642#2 25467642#3 145024125#0 145024125#1 145024125#2 145024131#2 145024131#3 145024131#4 145024131#5 145024131#6 145024132 145024130#1 145024130#2 332679254#0 332679254#1 332679254#2 450145510 450237379 306070184 287131345 287131341 10240931#6 10240931#7 10240931#8 10240931#1 10240931#2 287131333 287131338 306070183 -333509813#6 -333509813#5 -333509813#4 -333509813#3 -333509813#2 -332243841 -38673853#0 38673851#2 38673851#3 -38673851#3" color="yellow"/>
    </vehicle>
    <vehicle id="76" depart="76.00">
        <route edges="-132328633#0 -495981781 -8148997 72623026 366887887 366887890#1 366887884#3 28365844 366887885#0 366887885#1 8821674 132927100 28365870#2 28365870#3 28365870#4 9707250#0 9707250#1 134231322#1 9707251#1 9707251#2 9707251#3 9707251#4 9707262 132927094#1 132927094#2 132927099#2 398396661#1 398396661#2 9707265#3 9707265#4 9707265#5 9707265#6 9707265#7 27802172#0 27802172#1 27802172#2 27802172#4 27802172#5 27802172#6 133488402#2" color="yellow"/>
    </vehicle>
    <vehicle id="77" depart="77.00">
        <route edges="-495981781 -8148997 72623026 366887887 366887890#1 366887884#3 28365844 366887885#0 366887885#1 8821674 132927100 28365870#2 28365870#3 28365870#4 9707250#0 9707250#1 134231322#1 9707251#1 9707251#2 9707251#3 9707251#4 9707262 132927094#1 132927094#2 132927099#2 398396661#1 398396661#2" color="yellow"/>
    </vehicle>
    <vehicle id="78" depart="78.00">
        <route edges="-494838125#3 494838125#3 494838125#4 494838125#6 -296426884#0 398396659#2 398396662#1 132927097#1 132927097#2 132927097#3 9707251#6 9707268#0 9707268#1 9707268#2 28365870#6 28365870#7 28365870#0 8821673 132927089 366887885#3 366887886 366887884#0 366887884#1 8149004 366887889 366887888 8148997 495981781 132328633#0 132328633#1 132328633#2 132328633#3" color="yellow"/>
    </vehicle>
    <vehicle id="79" depart="79.00">
        <route edges="656737409#6 656737409#7 656737409#8 656737409#9 656737409#10 656737409#11 656737409#12 656737409#13 656737409#14 656737409#15 132927091#1 132927098 9707251#3 9707251#4 9707262 132927094#1 132927094#2 132927099#2 398396661#1 398396661#2 9707265#3 9707265#4 9707265#5 9707266 -102696285 143978698#0 143978698#2 143978698#3 90059529" color="yellow"/>
    </vehicle>
    <vehicle id="80" depart="80.00">
        <route edges="332652008 145024135 145024131#4 145024131#5 145024131#6 145024132 145024130#1 145024130#2 332679254#0 332679254#1 332679254#2 450145510 450237379 306070184 287131345 287131341 10240931#6 10240931#7 10240931#8 10240931#1 10240931#2 287131333 287131338 306070183 -333509813#6 -333509813#5 -333509813#4 -333509813#3 -333509813#2 -332243841 -38673853#0 38673851#2 38673851#3 306579943#0" color="yellow"/>
    </vehicle>
    <vehicle id="83" depart="83.00">
        <route edges="130657886#0 283862520#0 283862520#1 283862520#2 283862520#3 656737409#1 656737409#3 656737409#4 656737409#5 656737409#6 656737409#7 656737409#8 656737409#9 656737409#10 -9707252" color="yellow"/>
    </vehicle>
    <vehicle id="84" depart="84.00">
        <route edges="9707253#0 9707259#0 9707259#2 9707259#3 9707259#4 9707259#5 9707259#6 9707259#7 132927094#1 132927094#2 132927099#2 398396661#1 398396661#2 9707265#3 9707265#4 9707265#5 9707265#6 9707265#7 27802172#0 27802172#1 27802172#2 27802172#4 -133488399#0" color="yellow"/>
    </vehicle>
    <vehicle id="85" depart="85.00">
        <route edges="-133488399#2 548591376#3 548591376#5 548591376#6 548591376#7 9707265#1 9707265#2 9707265#3 9707265#4 9707265#5 9707266 -102696285 143978698#0 143978698#2 143978698#3 -112152741" color="yellow"/>
    </vehicle>
    <vehicle id="87" depart="87.00">
        <route edges="543704495#0 -543704495#0 -91440676#7 -91440676#6 -91440676#4 -91440676#3 -91440676#1 -91440676#0 7867286#5 7867286#6 7867286#7 7867286#8 7867286#9 7867286#10 7867286#11 7867286#12 7867286#13 7867286#14 7867288#0 7867288#1 7867288#2 102696285 52916590 9707265#7 9707265#0 9707265#1 9707263 398396659#1 398396659#2 398396662#1 132927097#1 -9707259#8 -9707259#7 -9707259#6 -9707259#5 -9707259#4 -9707259#3 -9707259#2 -9707259#0 9707253#1 9707256#0 9707256#1 9707256#2 9707256#3 9707256#4" color="yellow"/>
    </vehicle>
    <vehicle id="88" depart="88.00">
        <route edges="-43700590#4 -43796070#1 43943406 -43796072 7867286#2 7867286#3 7867286#4 7867286#5 7867286#6 7867286#7 7867286#8 7867286#9 7867286#10 7867286#11 7867286#12 7867286#13 7867286#14 7867288#0 7867288#1 7867288#2 102696285 52916590 9707265#7 27802172#0 27802172#1 27802172#2 27802172#4 27802172#5 27802172#6 133488402#2" color="yellow"/>
    </vehicle>
    <vehicle id="89" depart="89.00">
        <route edges="-656737409#8 656737409#8 656737409#9 656737409#10 656737409#11 656737409#12 656737409#13 656737409#14 656737409#15 132927091#1 132927098 9707251#3 9707251#4 9707262 132927094#1 132927094#2 132927099#2 398396661#1 398396661#2 9707265#3 9707265#4 9707265#5 9707266 -102696285 143978698#0 143978698#2 143978698#3 143978698#5 143978698#6 143978698#7 143978698#8 143978698#9 143978700" color="yellow"/>
    </vehicle>
    <vehicle id="90" depart="90.00">