<?xml version="1.0" encoding="UTF-8"?>

<!-- generated on 03/06/20 09:36:15 by Eclipse SUMO activitygen Version 1.5.0
<configuration xmlns:xsi="http://www.w3.org/2001/XMLSchema-instance" xsi:noNamespaceSchemaLocation="http://sumo.dlr.de/xsd/activitygenConfiguration.xsd">

    <input>
        <net-file value="activitygen-example.net.xml"/>
        <stat-file value="activitygen-example.stat.xml"/>
    </input>

    <output>
        <output-file value="activitygen-example.trips.rou.xml"/>
    </output>

    <random_number>
        <random value="true"/>
    </random_number>

</configuration>
-->

<routes xmlns:xsi="http://www.w3.org/2001/XMLSchema-instance" xsi:noNamespaceSchemaLocation="http://sumo.dlr.de/xsd/routes_file.xsd">
    <vType id="default" vClass="passenger" color="red"/>
    <vType id="random" vClass="passenger" color="blue"/>
    <vType id="bus" vClass="bus" color="green"/>

    <trip id="randUni194:1" type="random" depart="5.00" departPos="146.95" arrivalPos="116.52" arrivalSpeed="0.00" from="e23t33" to="e32t42"/>
    <trip id="randUni299:1" type="random" depart="871.00" departPos="66.41" arrivalPos="33.48" arrivalSpeed="0.00" from="e14t24" to="e13t14"/>
    <trip id="randUni224:1" type="random" depart="972.00" departPos="178.04" arrivalPos="169.21" arrivalSpeed="0.00" from="e31t41" to="e31t21"/>
    <trip id="randUni366:1" type="random" depart="1042.00" departPos="22.03" arrivalPos="61.60" arrivalSpeed="0.00" from="e23t24" to="e23t24"/>
    <trip id="randUni387:1" type="random" depart="1106.00" departPos="41.70" arrivalPos="144.07" arrivalSpeed="0.00" from="e32t22" to="e32t42"/>
    <trip id="randUni395:1" type="random" depart="1188.00" departPos="117.82" arrivalPos="58.45" arrivalSpeed="0.00" from="e32t31" to="e32t33"/>
    <trip id="randUni168:1" type="random" depart="1640.00" departPos="56.14" arrivalPos="171.61" arrivalSpeed="0.00" from="e33t23" to="e44t34"/>
    <trip id="randUni261:1" type="random" depart="2576.00" departPos="48.00" arrivalPos="77.51" arrivalSpeed="0.00" from="e22t12" to="e24t34"/>
    <trip id="randUni248:1" type="random" depart="3704.00" departPos="183.41" arrivalPos="57.39" arrivalSpeed="0.00" from="e23t24" to="e42t32"/>
    <trip id="randUni573:1" type="random" depart="3990.00" departPos="130.14" arrivalPos="91.53" arrivalSpeed="0.00" from="e11t21" to="e42t32"/>
    <trip id="randUni424:1" type="random" depart="4041.00" departPos="124.98" arrivalPos="124.57" arrivalSpeed="0.00" from="e31t32" to="e33t43"/>
    <trip id="randUni33:1" type="random" depart="4466.00" departPos="14.78" arrivalPos="163.37" arrivalSpeed="0.00" from="e43t33" to="e23t24"/>
    <trip id="randUni352:1" type="random" depart="5136.00" departPos="163.80" arrivalPos="32.12" arrivalSpeed="0.00" from="e22t21" to="e31t41"/>
    <trip id="randUni142:1" type="random" depart="5160.00" departPos="118.78" arrivalPos="25.99" arrivalSpeed="0.00" from="e42t43" to="e42t32"/>
    <trip id="randUni386:1" type="random" depart="5358.00" departPos="103.86" arrivalPos="36.74" arrivalSpeed="0.00" from="e22t12" to="e31t21"/>
    <trip id="randUni186:1" type="random" depart="5529.00" departPos="175.41" arrivalPos="124.21" arrivalSpeed="0.00" from="e33t23" to="e21t22"/>
    <trip id="randUni282:1" type="random" depart="5552.00" departPos="38.25" arrivalPos="89.07" arrivalSpeed="0.00" from="e32t31" to="e21t31"/>
    <trip id="randUni422:1" type="random" depart="6532.00" departPos="31.86" arrivalPos="105.28" arrivalSpeed="0.00" from="e23t22" to="e41t42"/>
    <trip id="randUni253:1" type="random" depart="6547.00" departPos="161.84" arrivalPos="174.95" arrivalSpeed="0.00" from="e22t23" to="e23t33"/>
    <trip id="randUni340:1" type="random" depart="6564.00" departPos="23.09" arrivalPos="166.43" arrivalSpeed="0.00" from="e32t22" to="e23t24"/>
    <trip id="randUni317:1" type="random" depart="6595.00" departPos="29.46" arrivalPos="77.38" arrivalSpeed="0.00" from="e32t42" to="e32t31"/>
    <trip id="randUni514:1" type="random" depart="6736.00" departPos="22.44" arrivalPos="104.86" arrivalSpeed="0.00" from="e14t13" to="e43t42"/>
    <trip id="randUni503:1" type="random" depart="6883.00" departPos="119.59" arrivalPos="110.34" arrivalSpeed="0.00" from="e23t33" to="e13t23"/>
    <trip id="randUni273:1" type="random" depart="6946.00" departPos="182.68" arrivalPos="28.40" arrivalSpeed="0.00" from="e23t24" to="e34t24"/>
    <trip id="randUni278:1" type="random" depart="7133.00" departPos="134.37" arrivalPos="14.00" arrivalSpeed="0.00" from="e31t21" to="e34t44"/>
    <trip id="randUni333:1" type="random" depart="7307.00" departPos="136.89" arrivalPos="97.38" arrivalSpeed="0.00" from="e22t21" to="e24t23"/>
    <trip id="randUni37:1" type="random" depart="7701.00" departPos="77.81" arrivalPos="148.35" arrivalSpeed="0.00" from="e41t31" to="e51t44"/>
    <trip id="randUni471:1" type="random" depart="7826.00" departPos="175.38" arrivalPos="105.05" arrivalSpeed="0.00" from="e13t23" to="e32t33"/>
    <trip id="randUni279:1" type="random" depart="7929.00" departPos="159.93" arrivalPos="274.97" arrivalSpeed="0.00" from="e24t34" to="e51t44"/>
    <trip id="randUni301:1" type="random" depart="8297.00" departPos="51.78" arrivalPos="130.18" arrivalSpeed="0.00" from="e23t22" to="e22t12"/>
    <trip id="randUni126:1" type="random" depart="8353.00" departPos="149.57" arrivalPos="11.80" arrivalSpeed="0.00" from="e34t44" to="e44t43"/>
    <trip id="randUni132:1" type="random" depart="8545.00" departPos="63.55" arrivalPos="82.67" arrivalSpeed="0.00" from="e33t23" to="e42t32"/>
    <trip id="randUni119:1" type="random" depart="9028.00" departPos="102.84" arrivalPos="102.45" arrivalSpeed="0.00" from="e22t21" to="e32t33"/>
    <trip id="randUni76:1" type="random" depart="9632.00" departPos="104.53" arrivalPos="145.61" arrivalSpeed="0.00" from="e12t11" to="e33t23"/>
    <trip id="randUni436:1" type="random" depart="10060.00" departPos="75.29" arrivalPos="145.81" arrivalSpeed="0.00" from="e43t42" to="e44t34"/>
    <trip id="randUni412:1" type="random" depart="10408.00" departPos="3.98" arrivalPos="1.56" arrivalSpeed="0.00" from="e24t34" to="e13t23"/>
    <trip id="randUni133:1" type="random" depart="10541.00" departPos="72.88" arrivalPos="155.24" arrivalSpeed="0.00" from="e01t11" to="e21t22"/>
    <trip id="randUni418:1" type="random" depart="10601.00" departPos="18.51" arrivalPos="93.38" arrivalSpeed="0.00" from="e43t42" to="e24t34"/>
    <trip id="randUni198:1" type="random" depart="10904.00" departPos="93.04" arrivalPos="4.43" arrivalSpeed="0.00" from="e34t44" to="e22t12"/>
    <trip id="randUni9:1" type="random" depart="10932.00" departPos="20.64" arrivalPos="22.72" arrivalSpeed="0.00" from="e33t43" to="e23t22"/>
    <trip id="randUni397:1" type="random" depart="11119.00" departPos="145.56" arrivalPos="82.18" arrivalSpeed="0.00" from="e42t41" to="e31t21"/>
    <trip id="randUni91:1" type="random" depart="11185.00" departPos="93.16" arrivalPos="87.66" arrivalSpeed="0.00" from="e32t31" to="e44t51"/>
    <trip id="randUni105:1" type="random" depart="11224.00" departPos="81.84" arrivalPos="73.94" arrivalSpeed="0.00" from="e23t33" to="e44t51"/>
    <trip id="randUni116:1" type="random" depart="11262.00" departPos="181.46" arrivalPos="141.22" arrivalSpeed="0.00" from="e33t23" to="e33t43"/>
    <trip id="randUni316:1" type="random" depart="11424.00" departPos="51.58" arrivalPos="39.39" arrivalSpeed="0.00" from="e31t21" to="e42t32"/>
    <trip id="randUni94:1" type="random" depart="12694.00" departPos="156.13" arrivalPos="106.27" arrivalSpeed="0.00" from="e23t24" to="e33t43"/>
    <trip id="randUni244:1" type="random" depart="13077.00" departPos="93.45" arrivalPos="122.65" arrivalSpeed="0.00" from="e33t23" to="e32t33"/>
    <trip id="randUni73:1" type="random" depart="13782.00" departPos="14.30" arrivalPos="175.39" arrivalSpeed="0.00" from="e32t22" to="e23t33"/>
    <trip id="randUni55:1" type="random" depart="13903.00" departPos="83.52" arrivalPos="137.47" arrivalSpeed="0.00" from="e33t34" to="e43t33"/>
    <trip id="randUni370:1" type="random" depart="14071.00" departPos="33.28" arrivalPos="161.41" arrivalSpeed="0.00" from="e41t31" to="e33t23"/>
    <trip id="randUni267:1" type="random" depart="14970.00" departPos="186.09" arrivalPos="47.44" arrivalSpeed="0.00" from="e01t11" to="e21t31"/>
    <trip id="randUni114:1" type="random" depart="15578.00" departPos="111.67" arrivalPos="73.03" arrivalSpeed="0.00" from="e24t34" to="e21t11"/>
    <trip id="randUni131:1" type="random" depart="16234.00" departPos="52.17" arrivalPos="112.61" arrivalSpeed="0.00" from="e14t24" to="e22t32"/>
    <trip id="randUni575:1" type="random" depart="17693.00" departPos="1.88" arrivalPos="156.03" arrivalSpeed="0.00" from="e13t23" to="e21t22"/>
    <trip id="randUni34:1" type="random" depart="17986.00" departPos="98.64" arrivalPos="179.09" arrivalSpeed="0.00" from="e32t22" to="e21t11"/>
    <trip id="randUni199:1" type="random" depart="18163.00" departPos="154.14" arrivalPos="165.11" arrivalSpeed="0.00" from="e23t24" to="e12t22"/>
    <trip id="randUni57:1" type="random" depart="18257.00" departPos="85.25" arrivalPos="167.40" arrivalSpeed="0.00" from="e43t44" to="e21t22"/>
    <trip id="randUni493:1" type="random" depart="18489.00" departPos="182.96" arrivalPos="39.37" arrivalSpeed="0.00" from="e13t23" to="e33t23"/>
    <trip id="randUni534:1" type="random" depart="18497.00" departPos="83.85" arrivalPos="20.89" arrivalSpeed="0.00" from="e11t21" to="e41t31"/>
    <trip id="randUni90:1" type="random" depart="18512.00" departPos="140.59" arrivalPos="29.30" arrivalSpeed="0.00" from="e31t21" to="e32t42"/>
    <trip id="randUni346:1" type="random" depart="18942.00" departPos="138.35" arrivalPos="128.52" arrivalSpeed="0.00" from="e34t44" to="e22t21"/>
    <trip id="randUni433:1" type="random" depart="19129.00" departPos="163.73" arrivalPos="156.02" arrivalSpeed="0.00" from="e51t44" to="e33t43"/>
    <trip id="randUni519:1" type="random" depart="19199.00" departPos="112.92" arrivalPos="69.67" arrivalSpeed="0.00" from="e13t14" to="e11t01"/>
    <trip id="randUni536:1" type="random" depart="19311.00" departPos="157.63" arrivalPos="81.29" arrivalSpeed="0.00" from="e43t42" to="e21t31"/>
    <trip id="randUni381:1" type="random" depart="20317.00" departPos="114.20" arrivalPos="138.21" arrivalSpeed="0.00" from="e23t13" to="e34t24"/>
    <trip id="randUni561:1" type="random" depart="21238.00" departPos="83.86" arrivalPos="143.67" arrivalSpeed="0.00" from="e12t13" to="e21t31"/>
    <trip id="randUni153:1" type="random" depart="21340.00" departPos="14.38" arrivalPos="30.17" arrivalSpeed="0.00" from="e12t11" to="e33t23"/>
    <trip id="randUni390:1" type="random" depart="21567.00" departPos="121.86" arrivalPos="57.95" arrivalSpeed="0.00" from="e34t33" to="e22t32"/>
    <trip id="bl101b1:1" type="bus" depart="21600.00" departPos="10.00" arrivalPos="10.00" arrivalSpeed="0.00" from="e11t12" via="e13t14 e14t24 e24t23 e23t33 e33t32 e32t31" to="e31t21"/>
    <trip id="bl101b2:27" type="bus" depart="21600.00" departPos="10.00" arrivalPos="10.00" arrivalSpeed="0.00" from="e21t31" via="e31t32 e32t33 e33t23 e23t24 e24t14 e14t13" to="e13t12"/>
    <trip id="bl101b3:1" type="bus" depart="21900.00" departPos="10.00" arrivalPos="10.00" arrivalSpeed="0.00" from="e11t12" via="e13t14 e14t24 e24t23 e23t33 e33t32 e32t31" to="e31t21"/>
    <trip id="bl101b4:27" type="bus" depart="21900.00" departPos="10.00" arrivalPos="10.00" arrivalSpeed="0.00" from="e21t31" via="e31t32 e32t33 e33t23 e23t24 e24t14 e14t13" to="e13t12"/>
    <trip id="randUni150:1" type="random" depart="22132.00" departPos="72.23" arrivalPos="41.43" arrivalSpeed="0.00" from="e22t21" to="e31t41"/>
    <trip id="bl101b5:1" type="bus" depart="22200.00" departPos="10.00" arrivalPos="10.00" arrivalSpeed="0.00" from="e11t12" via="e13t14 e14t24 e24t23 e23t33 e33t32 e32t31" to="e31t21"/>
    <trip id="bl101b6:27" type="bus" depart="22200.00" departPos="10.00" arrivalPos="10.00" arrivalSpeed="0.00" from="e21t31" via="e31t32 e32t33 e33t23 e23t24 e24t14 e14t13" to="e13t12"/>
    <trip id="bl101b7:1" type="bus" depart="22500.00" departPos="10.00" arrivalPos="10.00" arrivalSpeed="0.00" from="e11t12" via="e13t14 e14t24 e24t23 e23t33 e33t32 e32t31" to="e31t21"/>
    <trip id="bl101b8:27" type="bus" depart="22500.00" departPos="10.00" arrivalPos="10.00" arrivalSpeed="0.00" from="e21t31" via="e31t32 e32t33 e33t23 e23t24 e24t14 e14t13" to="e13t12"/>
    <trip id="randUni306:1" type="random" depart="22796.00" departPos="122.25" arrivalPos="159.05" arrivalSpeed="0.00" from="e13t14" to="e34t33"/>
    <trip id="bl101b2:1" type="bus" depart="22800.00" departPos="10.00" arrivalPos="10.00" arrivalSpeed="0.00" from="e11t12" via="e13t14 e14t24 e24t23 e23t33 e33t32 e32t31" to="e31t21"/>
    <trip id="bl101b1:29" type="bus" depart="22800.00" departPos="10.00" arrivalPos="10.00" arrivalSpeed="0.00" from="e21t31" via="e31t32 e32t33 e33t23 e23t24 e24t14 e14t13" to="e13t12"/>
    <trip id="randUni339:1" type="random" depart="23037.00" departPos="34.03" arrivalPos="172.87" arrivalSpeed="0.00" from="e42t41" to="e31t41"/>
    <trip id="bl101b4:1" type="bus" depart="23100.00" departPos="10.00" arrivalPos="10.00" arrivalSpeed="0.00" from="e11t12" via="e13t14 e14t24 e24t23 e23t33 e33t32 e32t31" to="e31t21"/>
    <trip id="bl101b3:29" type="bus" depart="23100.00" departPos="10.00" arrivalPos="10.00" arrivalSpeed="0.00" from="e21t31" via="e31t32 e32t33 e33t23 e23t24 e24t14 e14t13" to="e13t12"/>
    <trip id="randUni69:1" type="random" depart="23100.00" departPos="58.59" arrivalPos="97.96" arrivalSpeed="0.00" from="e21t31" to="e44t34"/>
    <trip id="randUni48:1" type="random" depart="23109.00" departPos="124.00" arrivalPos="60.08" arrivalSpeed="0.00" from="e12t13" to="e33t34"/>
    <trip id="bl101b6:1" type="bus" depart="23400.00" departPos="10.00" arrivalPos="10.00" arrivalSpeed="0.00" from="e11t12" via="e13t14 e14t24 e24t23 e23t33 e33t32 e32t31" to="e31t21"/>
    <trip id="bl101b5:27" type="bus" depart="23400.00" departPos="10.00" arrivalPos="10.00" arrivalSpeed="0.00" from="e21t31" via="e31t32 e32t33 e33t23 e23t24 e24t14 e14t13" to="e13t12"/>
    <trip id="randUni437:1" type="random" depart="23473.00" departPos="15.09" arrivalPos="37.44" arrivalSpeed="0.00" from="e13t12" to="e23t13"/>
    <trip id="bl101b8:1" type="bus" depart="23700.00" departPos="10.00" arrivalPos="10.00" arrivalSpeed="0.00" from="e11t12" via="e13t14 e14t24 e24t23 e23t33 e33t32 e32t31" to="e31t21"/>
    <trip id="bl101b7:27" type="bus" depart="23700.00" departPos="10.00" arrivalPos="10.00" arrivalSpeed="0.00" from="e21t31" via="e31t32 e32t33 e33t23 e23t24 e24t14 e14t13" to="e13t12"/>
    <trip id="bl101b1:3" type="bus" depart="24000.00" departPos="10.00" arrivalPos="10.00" arrivalSpeed="0.00" from="e11t12" via="e13t14 e14t24 e24t23 e23t33 e33t32 e32t31" to="e31t21"/>
    <trip id="bl101b2:29" type="bus" depart="24000.00" departPos="10.00" arrivalPos="10.00" arrivalSpeed="0.00" from="e21t31" via="e31t32 e32t33 e33t23 e23t24 e24t14 e14t13" to="e13t12"/>
    <trip id="randUni447:1" type="random" depart="24016.00" departPos="64.99" arrivalPos="128.56" arrivalSpeed="0.00" from="e33t23" to="e23t13"/>
    <trip id="randUni531:1" type="random" depart="24079.00" departPos="166.14" arrivalPos="38.79" arrivalSpeed="0.00" from="e23t22" to="e32t31"/>
    <trip id="bl101b3:3" type="bus" depart="24300.00" departPos="10.00" arrivalPos="10.00" arrivalSpeed="0.00" from="e11t12" via="e13t14 e14t24 e24t23 e23t33 e33t32 e32t31" to="e31t21"/>
    <trip id="bl101b4:29" type="bus" depart="24300.00" departPos="10.00" arrivalPos="10.00" arrivalSpeed="0.00" from="e21t31" via="e31t32 e32t33 e33t23 e23t24 e24t14 e14t13" to="e13t12"/>
    <trip id="bl101b5:3" type="bus" depart="24600.00" departPos="10.00" arrivalPos="10.00" arrivalSpeed="0.00" from="e11t12" via="e13t14 e14t24 e24t23 e23t33 e33t32 e32t31" to="e31t21"/>
    <trip id="bl101b6:29" type="bus" depart="24600.00" departPos="10.00" arrivalPos="10.00" arrivalSpeed="0.00" from="e21t31" via="e31t32 e32t33 e33t23 e23t24 e24t14 e14t13" to="e13t12"/>
    <trip id="randUni295:1" type="random" depart="24620.00" departPos="10.40" arrivalPos="10.96" arrivalSpeed="0.00" from="e01t11" to="e32t22"/>
    <trip id="randUni185:1" type="random" depart="24895.00" departPos="21.60" arrivalPos="129.34" arrivalSpeed="0.00" from="e41t42" to="e13t12"/>
    <trip id="bl101b7:3" type="bus" depart="24900.00" departPos="10.00" arrivalPos="10.00" arrivalSpeed="0.00" from="e11t12" via="e13t14 e14t24 e24t23 e23t33 e33t32 e32t31" to="e31t21"/>
    <trip id="bl101b8:29" type="bus" depart="24900.00" departPos="10.00" arrivalPos="10.00" arrivalSpeed="0.00" from="e21t31" via="e31t32 e32t33 e33t23 e23t24 e24t14 e14t13" to="e13t12"/>
    <trip id="bl101b2:3" type="bus" depart="25200.00" departPos="10.00" arrivalPos="10.00" arrivalSpeed="0.00" from="e11t12" via="e13t14 e14t24 e24t23 e23t33 e33t32 e32t31" to="e31t21"/>
    <trip id="bl101b1:31" type="bus" depart="25200.00" departPos="10.00" arrivalPos="10.00" arrivalSpeed="0.00" from="e21t31" via="e31t32 e32t33 e33t23 e23t24 e24t14 e14t13" to="e13t12"/>
    <trip id="randUni473:1" type="random" depart="25288.00" departPos="41.77" arrivalPos="170.56" arrivalSpeed="0.00" from="e43t33" to="e42t41"/>
    <trip id="bl101b4:3" type="bus" depart="25500.00" departPos="10.00" arrivalPos="10.00" arrivalSpeed="0.00" from="e11t12" via="e13t14 e14t24 e24t23 e23t33 e33t32 e32t31" to="e31t21"/>
    <trip id="bl101b3:31" type="bus" depart="25500.00" departPos="10.00" arrivalPos="10.00" arrivalSpeed="0.00" from="e21t31" via="e31t32 e32t33 e33t23 e23t24 e24t14 e14t13" to="e13t12"/>
    <trip id="randUni494:1" type="random" depart="25627.00" departPos="89.64" arrivalPos="111.85" arrivalSpeed="0.00" from="e34t24" to="e24t34"/>
    <trip id="randUni110:1" type="random" depart="25740.00" departPos="16.17" arrivalPos="30.93" arrivalSpeed="0.00" from="e32t22" to="e43t33"/>
    <trip id="bl101b6:3" type="bus" depart="25800.00" departPos="10.00" arrivalPos="10.00" arrivalSpeed="0.00" from="e11t12" via="e13t14 e14t24 e24t23 e23t33 e33t32 e32t31" to="e31t21"/>
    <trip id="bl101b5:29" type="bus" depart="25800.00" departPos="10.00" arrivalPos="10.00" arrivalSpeed="0.00" from="e21t31" via="e31t32 e32t33 e33t23 e23t24 e24t14 e14t13" to="e13t12"/>
    <trip id="randUni470:1" type="random" depart="25868.00" departPos="106.83" arrivalPos="72.57" arrivalSpeed="0.00" from="e11t21" to="e43t42"/>
    <trip id="bl101b8:3" type="bus" depart="26100.00" departPos="10.00" arrivalPos="10.00" arrivalSpeed="0.00" from="e11t12" via="e13t14 e14t24 e24t23 e23t33 e33t32 e32t31" to="e31t21"/>
    <trip id="bl101b7:29" type="bus" depart="26100.00" departPos="10.00" arrivalPos="10.00" arrivalSpeed="0.00" from="e21t31" via="e31t32 e32t33 e33t23 e23t24 e24t14 e14t13" to="e13t12"/>
    <trip id="bl101b1:5" type="bus" depart="26400.00" departPos="10.00" arrivalPos="10.00" arrivalSpeed="0.00" from="e11t12" via="e13t14 e14t24 e24t23 e23t33 e33t32 e32t31" to="e31t21"/>
    <trip id="bl101b2:31" type="bus" depart="26400.00" departPos="10.00" arrivalPos="10.00" arrivalSpeed="0.00" from="e21t31" via="e31t32 e32t33 e33t23 e23t24 e24t14 e14t13" to="e13t12"/>
    <trip id="bl101b3:5" type="bus" depart="26700.00" departPos="10.00" arrivalPos="10.00" arrivalSpeed="0.00" from="e11t12" via="e13t14 e14t24 e24t23 e23t33 e33t32 e32t31" to="e31t21"/>
    <trip id="bl101b4:31" type="bus" depart="26700.00" departPos="10.00" arrivalPos="10.00" arrivalSpeed="0.00" from="e21t31" via="e31t32 e32t33 e33t23 e23t24 e24t14 e14t13" to="e13t12"/>
    <trip id="randUni258:1" type="random" depart="26927.00" departPos="172.44" arrivalPos="155.38" arrivalSpeed="0.00" from="e12t13" to="e34t44"/>
    <trip id="randUni141:1" type="random" depart="26930.00" departPos="126.39" arrivalPos="3.05" arrivalSpeed="0.00" from="e31t41" to="e33t23"/>
    <trip id="bl101b5:5" type="bus" depart="27000.00" departPos="10.00" arrivalPos="10.00" arrivalSpeed="0.00" from="e11t12" via="e13t14 e14t24 e24t23 e23t33 e33t32 e32t31" to="e31t21"/>
    <trip id="bl101b6:31" type="bus" depart="27000.00" departPos="10.00" arrivalPos="10.00" arrivalSpeed="0.00" from="e21t31" via="e31t32 e32t33 e33t23 e23t24 e24t14 e14t13" to="e13t12"/>
    <trip id="randUni394:1" type="random" depart="27086.00" departPos="104.15" arrivalPos="15.85" arrivalSpeed="0.00" from="e32t33" to="e31t21"/>
    <trip id="randUni416:1" type="random" depart="27223.00" departPos="130.27" arrivalPos="6.04" arrivalSpeed="0.00" from="e32t33" to="e44t34"/>
    <trip id="bl101b7:5" type="bus" depart="27300.00" departPos="10.00" arrivalPos="10.00" arrivalSpeed="0.00" from="e11t12" via="e13t14 e14t24 e24t23 e23t33 e33t32 e32t31" to="e31t21"/>
    <trip id="bl101b8:31" type="bus" depart="27300.00" departPos="10.00" arrivalPos="10.00" arrivalSpeed="0.00" from="e21t31" via="e31t32 e32t33 e33t23 e23t24 e24t14 e14t13" to="e13t12"/>
    <trip id="randUni322:1" type="random" depart="27351.00" departPos="78.63" arrivalPos="100.20" arrivalSpeed="0.00" from="e31t32" to="e21t11"/>
    <trip id="bl101b2:5" type="bus" depart="27600.00" departPos="10.00" arrivalPos="10.00" arrivalSpeed="0.00" from="e11t12" via="e13t14 e14t24 e24t23 e23t33 e33t32 e32t31" to="e31t21"/>
    <trip id="bl101b1:33" type="bus" depart="27600.00" departPos="10.00" arrivalPos="10.00" arrivalSpeed="0.00" from="e21t31" via="e31t32 e32t33 e33t23 e23t24 e24t14 e14t13" to="e13t12"/>
    <trip id="bl101b4:5" type="bus" depart="27900.00" departPos="10.00" arrivalPos="10.00" arrivalSpeed="0.00" from="e11t12" via="e13t14 e14t24 e24t23 e23t33 e33t32 e32t31" to="e31t21"/>
    <trip id="bl101b3:33" type="bus" depart="27900.00" departPos="10.00" arrivalPos="10.00" arrivalSpeed="0.00" from="e21t31" via="e31t32 e32t33 e33t23 e23t24 e24t14 e14t13" to="e13t12"/>
    <trip id="randUni149:1" type="random" depart="27993.00" departPos="154.65" arrivalPos="62.66" arrivalSpeed="0.00" from="e11t21" to="e33t23"/>
    <trip id="randUni201:1" type="random" depart="28013.00" departPos="61.96" arrivalPos="162.82" arrivalSpeed="0.00" from="e13t14" to="e32t42"/>
    <trip id="randUni19:1" type="random" depart="28025.00" departPos="127.85" arrivalPos="132.68" arrivalSpeed="0.00" from="e44t43" to="e12t22"/>
    <trip id="bl101b6:5" type="bus" depart="28200.00" departPos="10.00" arrivalPos="10.00" arrivalSpeed="0.00" from="e11t12" via="e13t14 e14t24 e24t23 e23t33 e33t32 e32t31" to="e31t21"/>
    <trip id="bl101b5:31" type="bus" depart="28200.00" departPos="10.00" arrivalPos="10.00" arrivalSpeed="0.00" from="e21t31" via="e31t32 e32t33 e33t23 e23t24 e24t14 e14t13" to="e13t12"/>
    <trip id="randUni193:1" type="random" depart="28449.00" departPos="67.01" arrivalPos="38.01" arrivalSpeed="0.00" from="e44t43" to="e23t24"/>
    <trip id="bl101b8:5" type="bus" depart="28500.00" departPos="10.00" arrivalPos="10.00" arrivalSpeed="0.00" from="e11t12" via="e13t14 e14t24 e24t23 e23t33 e33t32 e32t31" to="e31t21"/>
    <trip id="bl101b7:31" type="bus" depart="28500.00" departPos="10.00" arrivalPos="10.00" arrivalSpeed="0.00" from="e21t31" via="e31t32 e32t33 e33t23 e23t24 e24t14 e14t13" to="e13t12"/>
    <trip id="randUni50:1" type="random" depart="28679.00" departPos="64.06" arrivalPos="144.52" arrivalSpeed="0.00" from="e12t11" to="e23t13"/>
    <trip id="bl102b1:1" type="bus" depart="28800.00" departPos="10.00" arrivalPos="10.00" arrivalSpeed="0.00" from="e41t31" via="e31t21 e21t11 e11t12 e12t22 e22t32 e32t42" to="e42t41"/>
    <trip id="bl102b2:9" type="bus" depart="28800.00" departPos="10.00" arrivalPos="10.00" arrivalSpeed="0.00" from="e41t42" via="e42t32 e32t22 e22t12 e12t11 e11t21 e21t31" to="e31t41"/>
    <trip id="bl101b1:7" type="bus" depart="28800.00" departPos="10.00" arrivalPos="10.00" arrivalSpeed="0.00" from="e11t12" via="e13t14 e14t24 e24t23 e23t33 e33t32 e32t31" to="e31t21"/>
    <trip id="bl101b2:33" type="bus" depart="28800.00" departPos="10.00" arrivalPos="10.00" arrivalSpeed="0.00" from="e21t31" via="e31t32 e32t33 e33t23 e23t24 e24t14 e14t13" to="e13t12"/>
    <trip id="randUni280:1" type="random" depart="29012.00" departPos="159.93" arrivalPos="122.63" arrivalSpeed="0.00" from="e23t33" to="e12t11"/>
    <trip id="randUni428:1" type="random" depart="29029.00" departPos="107.14" arrivalPos="179.13" arrivalSpeed="0.00" from="e13t14" to="e22t32"/>
    <trip id="bl101b3:7" type="bus" depart="29100.00" departPos="10.00" arrivalPos="10.00" arrivalSpeed="0.00" from="e11t12" via="e13t14 e14t24 e24t23 e23t33 e33t32 e32t31" to="e31t21"/>
    <trip id="bl101b4:33" type="bus" depart="29100.00" departPos="10.00" arrivalPos="10.00" arrivalSpeed="0.00" from="e21t31" via="e31t32 e32t33 e33t23 e23t24 e24t14 e14t13" to="e13t12"/>
    <trip id="randUni520:1" type="random" depart="29123.00" departPos="40.10" arrivalPos="94.97" arrivalSpeed="0.00" from="e41t42" to="e13t14"/>
    <trip id="randUni511:1" type="random" depart="29173.00" departPos="99.64" arrivalPos="114.08" arrivalSpeed="0.00" from="e13t14" to="e11t21"/>
    <trip id="randUni456:1" type="random" depart="29352.00" departPos="152.70" arrivalPos="118.79" arrivalSpeed="0.00" from="e31t41" to="e12t11"/>
    <trip id="bl102b3:1" type="bus" depart="29400.00" departPos="10.00" arrivalPos="10.00" arrivalSpeed="0.00" from="e41t31" via="e31t21 e21t11 e11t12 e12t22 e22t32 e32t42" to="e42t41"/>
    <trip id="bl102b4:9" type="bus" depart="29400.00" departPos="10.00" arrivalPos="10.00" arrivalSpeed="0.00" from="e41t42" via="e42t32 e32t22 e22t12 e12t11 e11t21 e21t31" to="e31t41"/>
    <trip id="bl101b5:7" type="bus" depart="29400.00" departPos="10.00" arrivalPos="10.00" arrivalSpeed="0.00" from="e11t12" via="e13t14 e14t24 e24t23 e23t33 e33t32 e32t31" to="e31t21"/>
    <trip id="bl101b6:33" type="bus" depart="29400.00" departPos="10.00" arrivalPos="10.00" arrivalSpeed="0.00" from="e21t31" via="e31t32 e32t33 e33t23 e23t24 e24t14 e14t13" to="e13t12"/>
    <trip id="randUni252:1" type="random" depart="29644.00" departPos="107.86" arrivalPos="69.22" arrivalSpeed="0.00" from="e42t41" to="e24t23"/>
    <trip id="bl101b7:7" type="bus" depart="29700.00" departPos="10.00" arrivalPos="10.00" arrivalSpeed="0.00" from="e11t12" via="e13t14 e14t24 e24t23 e23t33 e33t32 e32t31" to="e31t21"/>
    <trip id="bl101b8:33" type="bus" depart="29700.00" departPos="10.00" arrivalPos="10.00" arrivalSpeed="0.00" from="e21t31" via="e31t32 e32t33 e33t23 e23t24 e24t14 e14t13" to="e13t12"/>
    <trip id="randUni77:1" type="random" depart="29805.00" departPos="61.74" arrivalPos="99.59" arrivalSpeed="0.00" from="e33t43" to="e13t23"/>
    <trip id="carIn18:1" type="default" depart="29944.00" departPos="280.00" arrivalPos="62.53" arrivalSpeed="0.00" from="e44t51" to="e21t22"/>
    <trip id="carIn109:1" type="default" depart="29984.00" departPos="1.00" arrivalPos="8.56" arrivalSpeed="0.00" from="e01t11" to="e44t51"/>
    <trip id="carIn117:1" type="default" depart="29985.00" departPos="1.00" arrivalPos="1.50" arrivalSpeed="0.00" from="e01t11" to="e13t14"/>
    <trip id="bl102b2:1" type="bus" depart="30000.00" departPos="10.00" arrivalPos="10.00" arrivalSpeed="0.00" from="e41t31" via="e31t21 e21t11 e11t12 e12t22 e22t32 e32t42" to="e42t41"/>
    <trip id="bl102b1:11" type="bus" depart="30000.00" departPos="10.00" arrivalPos="10.00" arrivalSpeed="0.00" from="e41t42" via="e42t32 e32t22 e22t12 e12t11 e11t21 e21t31" to="e31t41"/>
    <trip id="bl101b2:7" type="bus" depart="30000.00" departPos="10.00" arrivalPos="10.00" arrivalSpeed="0.00" from="e11t12" via="e13t14 e14t24 e24t23 e23t33 e33t32 e32t31" to="e31t21"/>
    <trip id="bl101b1:35" type="bus" depart="30000.00" departPos="10.00" arrivalPos="10.00" arrivalSpeed="0.00" from="e21t31" via="e31t32 e32t33 e33t23 e23t24 e24t14 e14t13" to="e13t12"/>
    <trip id="h243c1:1" type="default" depart="30002.00" departPos="166.20" arrivalPos="87.68" arrivalSpeed="0.00" from="e31t41" to="e12t13"/>
    <trip id="h118c1:1" type="default" depart="30087.00" departPos="41.48" arrivalPos="130.26" arrivalSpeed="0.00" from="e24t34" to="e11t21"/>
    <trip id="carIn124:1" type="default" depart="30108.00" departPos="280.00" arrivalPos="280.00" arrivalSpeed="0.00" from="e44t51" to="e44t51"/>
    <trip id="h357c1:1" type="default" depart="30111.00" departPos="44.23" arrivalPos="70.87" arrivalSpeed="0.00" from="e34t44" to="e14t24"/>
    <trip id="randUni549:1" type="random" depart="30137.00" departPos="90.66" arrivalPos="80.19" arrivalSpeed="0.00" from="e43t44" to="e24t34"/>
    <trip id="h250c1:1" type="default" depart="30169.00" departPos="48.31" arrivalPos="182.39" arrivalSpeed="0.00" from="e31t41" to="e33t34"/>
    <trip id="carIn72:1" type="default" depart="30173.00" departPos="1.00" arrivalPos="280.00" arrivalSpeed="0.00" from="e01t11" to="e44t51"/>
    <trip id="carIn111:1" type="default" depart="30187.00" departPos="280.00" arrivalPos="6.76" arrivalSpeed="0.00" from="e44t51" to="e23t24"/>
    <trip id="h463c1:1" type="default" depart="30196.00" departPos="161.27" arrivalPos="161.27" arrivalSpeed="0.00" from="e44t51" via="e33t34" to="e44t51"/>
    <trip id="h58c1:1" type="default" depart="30214.00" departPos="135.08" arrivalPos="170.93" arrivalSpeed="0.00" from="e22t32" to="e01t11"/>
    <trip id="carIn47:1" type="default" depart="30251.00" departPos="280.00" arrivalPos="134.60" arrivalSpeed="0.00" from="e44t51" to="e01t11"/>
    <trip id="h363c1:1" type="default" depart="30260.00" departPos="3.47" arrivalPos="49.39" arrivalSpeed="0.00" from="e34t44" to="e21t31"/>
    <trip id="carIn63:1" type="default" depart="30263.00" departPos="280.00" arrivalPos="49.29" arrivalSpeed="0.00" from="e44t51" to="e13t23"/>
    <trip id="carIn48:1" type="default" depart="30277.00" departPos="1.00" arrivalPos="67.17" arrivalSpeed="0.00" from="e01t11" to="e12t22"/>
    <trip id="carIn26:1" type="default" depart="30289.00" departPos="280.00" arrivalPos="144.22" arrivalSpeed="0.00" from="e44t51" to="e23t24"/>