<?xml version="1.0" encoding="UTF-8"?>

<!-- generated on 03/05/20 13:50:48 by Eclipse SUMO netedit Version 1.5.0
<configuration xmlns:xsi="http://www.w3.org/2001/XMLSchema-instance" xsi:noNamespaceSchemaLocation="http://sumo.dlr.de/xsd/netconvertConfiguration.xsd">

    <input>
        <sumo-net-file value="C:\MyThings\Programming\uni\traffic-modelling\helloo_net\helloo.net.xml"/>
    </input>

    <output>
        <output-file value="C:\MyThings\Programming\uni\traffic-modelling\helloo_net\helloo.net.xml"/>
    </output>

    <processing>
        <geometry.min-radius.fix.railways value="false"/>
        <geometry.max-grade.fix value="false"/>
        <offset.disable-normalization value="true"/>
        <lefthand value="false"/>
    </processing>

    <junctions>
        <no-internal-links value="false"/>
        <no-turnarounds value="true"/>
        <junctions.corner-detail value="5"/>
        <junctions.limit-turn-speed value="5.5"/>
        <rectangular-lane-cut value="false"/>
    </junctions>

    <pedestrian>
        <walkingareas value="false"/>
    </pedestrian>

    <report>
        <aggregate-warnings value="5"/>
    </report>

</configuration>
-->

<net version="1.3" junctionCornerDetail="5" limitTurnSpeed="5.50" xmlns:xsi="http://www.w3.org/2001/XMLSchema-instance" xsi:noNamespaceSchemaLocation="http://sumo.dlr.de/xsd/net_file.xsd">

    <location netOffset="0.00,0.00" convBoundary="-209.13,-106.52,241.32,223.84" origBoundary="-10000000000.00,-10000000000.00,10000000000.00,10000000000.00" projParameter="!"/>

    <edge id=":gneJ0_0" function="internal">
        <lane id=":gneJ0_0_0" index="0" disallow="pedestrian" speed="7.32" length="5.83" shape="-25.85,47.42 -26.74,45.83 -28.08,44.65 -29.88,43.86 -30.14,43.82"/>
    </edge>
    <edge id=":gneJ0_1" function="internal">
        <lane id=":gneJ0_1_0" index="0" disallow="pedestrian" speed="13.89" length="11.55" shape="-25.85,47.42 -26.93,44.20 -27.27,41.87 -27.00,39.49 -26.25,36.16"/>
    </edge>
    <edge id=":gneJ0_6" function="internal">
        <lane id=":gneJ0_6_0" index="0" disallow="pedestrian" speed="7.32" length="2.01" shape="-30.14,43.82 -32.12,43.47"/>
    </edge>
    <edge id=":gneJ0_2" function="internal">
        <lane id=":gneJ0_2_0" index="0" disallow="pedestrian" speed="13.00" length="9.66" shape="-23.13,36.88 -23.77,39.67 -24.01,41.66 -23.74,43.61 -22.86,46.30"/>
    </edge>
    <edge id=":gneJ0_3" function="internal">
        <lane id=":gneJ0_3_0" index="0" disallow="pedestrian" speed="7.93" length="5.26" shape="-23.13,36.88 -24.32,39.98 -25.61,41.43"/>
    </edge>
    <edge id=":gneJ0_7" function="internal">
        <lane id=":gneJ0_7_0" index="0" disallow="pedestrian" speed="7.93" length="7.07" shape="-25.61,41.43 -26.21,42.11 -28.81,43.28 -32.12,43.47"/>
    </edge>
    <edge id=":gneJ0_4" function="internal">
        <lane id=":gneJ0_4_0" index="0" disallow="pedestrian" speed="6.40" length="5.64" shape="-31.87,40.28 -29.80,40.16 -28.17,39.43 -26.99,38.10"/>
    </edge>
    <edge id=":gneJ0_5" function="internal">
        <lane id=":gneJ0_5_0" index="0" disallow="pedestrian" speed="8.75" length="9.46" shape="-31.87,40.28 -28.69,40.86 -26.13,42.06 -24.19,43.87 -23.83,44.52"/>
    </edge>
    <edge id=":gneJ0_8" function="internal">
        <lane id=":gneJ0_8_0" index="0" disallow="pedestrian" speed="6.40" length="2.07" shape="-26.99,38.10 -26.25,36.16"/>
    </edge>
    <edge id=":gneJ0_9" function="internal">
        <lane id=":gneJ0_9_0" index="0" disallow="pedestrian" speed="8.75" length="2.02" shape="-23.83,44.52 -22.86,46.30"/>
    </edge>
    <edge id=":gneJ0_c0" function="crossing" crossingEdges="gneE0 -gneE0">
        <lane id=":gneJ0_c0_0" index="0" allow="pedestrian" speed="1.00" length="6.40" width="2.00" shape="-21.71,44.80 -27.70,47.04"/>
    </edge>
    <edge id=":gneJ0_c1" function="crossing" crossingEdges="-gneE11 gneE11">
        <lane id=":gneJ0_c1_0" index="0" allow="pedestrian" speed="1.00" length="6.40" width="2.00" shape="-28.04,36.77 -21.80,38.22"/>
    </edge>
    <edge id=":gneJ0_c2" function="crossing" crossingEdges="-gneE30 gneE30">
        <lane id=":gneJ0_c2_0" index="0" allow="pedestrian" speed="1.00" length="6.40" width="2.00" shape="-31.24,45.15 -30.75,38.77"/>
    </edge>
    <edge id=":gneJ0_w0" function="walkingarea">
        <lane id=":gneJ0_w0_0" index="0" allow="pedestrian" speed="1.00" length="3.42" width="2.00" shape="-32.24,45.07 -32.40,47.06 -29.23,48.67 -27.35,47.97 -27.76,47.17 -28.33,46.50 -29.06,45.95 -29.96,45.53 -31.02,45.23"/>
    </edge>
    <edge id=":gneJ0_w1" function="walkingarea">
        <lane id=":gneJ0_w1_0" index="0" allow="pedestrian" speed="1.00" length="5.34" width="2.00" shape="-21.36,45.74 -19.48,45.04 -19.63,37.70 -21.58,37.24 -21.99,39.03 -22.27,40.40 -22.38,41.55 -22.29,42.69 -21.96,44.01"/>
    </edge>
    <edge id=":gneJ0_w2" function="walkingarea">
        <lane id=":gneJ0_w2_0" index="0" allow="pedestrian" speed="1.00" length="2.88" width="2.00" shape="-27.81,35.80 -29.76,35.35 -31.59,36.69 -31.75,38.69 -30.75,38.68 -29.88,38.48 -29.16,38.09 -28.57,37.52 -28.12,36.75"/>
    </edge>
    <edge id=":gneJ1_0" function="internal">
        <lane id=":gneJ1_0_0" index="0" disallow="pedestrian" speed="9.42" length="10.19" shape="8.01,96.92 3.27,96.68 -0.42,97.03 -2.05,97.62"/>
    </edge>
    <edge id=":gneJ1_1" function="internal">
        <lane id=":gneJ1_1_0" index="0" disallow="pedestrian" speed="13.86" length="25.92" shape="8.01,96.92 0.65,95.25 -5.41,91.90 -10.17,86.88 -12.25,82.86"/>
    </edge>
    <edge id=":gneJ1_2" function="internal">
        <lane id=":gneJ1_2_0" index="0" disallow="pedestrian" speed="8.52" length="13.08" shape="8.01,96.92 0.80,95.31 -2.93,92.33 -2.98,91.41"/>
    </edge>
    <edge id=":gneJ1_14" function="internal">
        <lane id=":gneJ1_14_0" index="0" disallow="pedestrian" speed="9.42" length="3.33" shape="-2.05,97.62 -3.08,97.99 -4.69,99.55"/>
    </edge>
    <edge id=":gneJ1_15" function="internal">
        <lane id=":gneJ1_15_0" index="0" disallow="pedestrian" speed="13.86" length="3.02" shape="-12.25,82.86 -13.64,80.18"/>
    </edge>
    <edge id=":gneJ1_16" function="internal">
        <lane id=":gneJ1_16_0" index="0" disallow="pedestrian" speed="8.52" length="10.02" shape="-2.98,91.41 -3.18,87.97 0.04,82.25"/>
    </edge>
    <edge id=":gneJ1_3" function="internal">
        <lane id=":gneJ1_3_0" index="0" disallow="pedestrian" speed="6.17" length="8.40" shape="5.10,86.17 3.36,89.15 3.32,91.41 4.98,92.94 5.40,93.04"/>
    </edge>
    <edge id=":gneJ1_4" function="internal">
        <lane id=":gneJ1_4_0" index="0" disallow="pedestrian" speed="13.89" length="16.81" shape="5.10,86.17 2.02,90.02 -0.12,92.64 -2.10,95.37 -4.69,99.55"/>
        <lane id=":gneJ1_4_1" index="1" disallow="pedestrian" speed="13.89" length="16.81" shape="2.57,84.21 -0.58,88.16 -2.77,90.84 -4.80,93.64 -7.45,97.93"/>
    </edge>
    <edge id=":gneJ1_6" function="internal">
        <lane id=":gneJ1_6_0" index="0" disallow="pedestrian" speed="8.52" length="7.75" shape="2.57,84.21 -2.16,88.76 -3.32,88.99"/>
    </edge>
    <edge id=":gneJ1_17" function="internal">
        <lane id=":gneJ1_17_0" index="0" disallow="pedestrian" speed="6.17" length="3.03" shape="5.40,93.04 8.34,93.74"/>
    </edge>
    <edge id=":gneJ1_18" function="internal">
        <lane id=":gneJ1_18_0" index="0" disallow="pedestrian" speed="8.52" length="15.34" shape="-3.32,88.99 -6.44,89.61 -10.27,86.75 -13.64,80.18"/>
    </edge>
    <edge id=":gneJ1_7" function="internal">
        <lane id=":gneJ1_7_0" index="0" disallow="pedestrian" speed="6.18" length="8.41" shape="-10.64,79.06 -9.02,82.11 -7.12,83.33 -4.94,82.73 -4.64,82.42"/>
    </edge>
    <edge id=":gneJ1_8" function="internal">
        <lane id=":gneJ1_8_0" index="0" disallow="pedestrian" speed="12.99" length="22.35" shape="-10.64,79.06 -7.60,84.93 -3.43,89.34 1.89,92.28 5.39,93.07"/>
    </edge>
    <edge id=":gneJ1_9" function="internal">
        <lane id=":gneJ1_9_0" index="0" disallow="pedestrian" speed="13.25" length="8.03" shape="-10.64,79.06 -8.36,85.81 -8.15,86.69"/>
    </edge>
    <edge id=":gneJ1_19" function="internal">
        <lane id=":gneJ1_19_0" index="0" disallow="pedestrian" speed="6.18" length="3.03" shape="-4.64,82.42 -2.49,80.29"/>
    </edge>
    <edge id=":gneJ1_20" function="internal">
        <lane id=":gneJ1_20_0" index="0" disallow="pedestrian" speed="12.99" length="3.02" shape="5.39,93.07 8.34,93.74"/>
    </edge>
    <edge id=":gneJ1_21" function="internal">
        <lane id=":gneJ1_21_0" index="0" disallow="pedestrian" speed="13.25" length="11.46" shape="-8.15,86.69 -7.07,91.21 -6.77,95.25 -7.45,97.93"/>
    </edge>
    <edge id=":gneJ1_10" function="internal">
        <lane id=":gneJ1_10_0" index="0" disallow="pedestrian" speed="11.65" length="11.95" shape="-12.97,94.68 -11.92,91.93 -11.68,88.59 -12.26,84.67 -12.75,83.05"/>
    </edge>
    <edge id=":gneJ1_11" function="internal">
        <lane id=":gneJ1_11_0" index="0" disallow="pedestrian" speed="13.89" length="17.63" shape="-12.97,94.68 -10.19,90.19 -8.08,87.25 -5.79,84.43 -2.49,80.29"/>
        <lane id=":gneJ1_11_1" index="1" disallow="pedestrian" speed="13.89" length="17.63" shape="-10.21,96.31 -7.49,91.91 -5.43,89.04 -3.19,86.29 0.04,82.25"/>
    </edge>
    <edge id=":gneJ1_13" function="internal">
        <lane id=":gneJ1_13_0" index="0" disallow="pedestrian" speed="11.19" length="3.80" shape="-10.21,96.31 -8.11,94.56 -7.08,94.28"/>
    </edge>
    <edge id=":gneJ1_22" function="internal">
        <lane id=":gneJ1_22_0" index="0" disallow="pedestrian" speed="11.65" length="3.01" shape="-12.75,83.05 -13.64,80.18"/>
    </edge>
    <edge id=":gneJ1_23" function="internal">
        <lane id=":gneJ1_23_0" index="0" disallow="pedestrian" speed="11.19" length="15.53" shape="-7.08,94.28 -4.33,93.55 1.16,93.28 8.34,93.74"/>
    </edge>
    <edge id=":gneJ1_c0" function="crossing" crossingEdges="gneE1 -gneE1">
        <lane id=":gneJ1_c0_0" index="0" allow="pedestrian" speed="1.00" length="6.40" width="3.00" shape="7.01,91.99 6.35,98.36"/>
    </edge>
    <edge id=":gneJ1_c1" function="crossing" crossingEdges="-gneE8 gneE8">
        <lane id=":gneJ1_c1_0" index="0" allow="pedestrian" speed="1.00" length="12.80" width="3.00" shape="-4.67,80.49 5.45,88.33"/>
    </edge>
    <edge id=":gneJ1_c2" function="crossing" crossingEdges="-gneE0 gneE0">
        <lane id=":gneJ1_c2_0" index="0" allow="pedestrian" speed="1.00" length="6.40" width="3.00" shape="-14.61,82.14 -8.62,79.91"/>
    </edge>
    <edge id=":gneJ1_c3" function="crossing" crossingEdges="-gneE39 gneE39">
        <lane id=":gneJ1_c3_0" index="0" allow="pedestrian" speed="1.00" length="12.80" width="3.00" shape="-2.55,99.07 -13.58,92.58"/>
    </edge>
    <edge id=":gneJ1_w0" function="walkingarea">
        <lane id=":gneJ1_w0_0" index="0" allow="pedestrian" speed="1.00" length="7.04" width="3.00" shape="-3.31,100.36 -1.59,101.38 7.64,100.50 7.84,98.52 4.90,98.29 2.39,98.28 0.31,98.48 -1.33,98.90 -2.54,99.52"/>
    </edge>
    <edge id=":gneJ1_w1" function="walkingarea">
        <lane id=":gneJ1_w1_0" index="0" allow="pedestrian" speed="1.00" length="3.29" width="3.00" shape="8.50,92.15 8.71,90.16 7.95,88.37 6.37,87.15 5.47,88.52 5.08,89.67 5.19,90.61 5.79,91.34 6.90,91.85"/>
    </edge>
    <edge id=":gneJ1_w2" function="walkingarea">
        <lane id=":gneJ1_w2_0" index="0" allow="pedestrian" speed="1.00" length="3.30" width="3.00" shape="-3.75,79.31 -5.33,78.08 -7.27,77.80 -9.14,78.50 -8.45,79.98 -7.67,80.92 -6.82,81.32 -5.88,81.19 -4.86,80.52"/>
    </edge>
    <edge id=":gneJ1_w3" function="walkingarea">
        <lane id=":gneJ1_w3_0" index="0" allow="pedestrian" speed="1.00" length="8.23" width="3.00" shape="-15.14,80.74 -17.01,81.43 -16.07,92.86 -14.35,93.87 -13.67,92.32 -13.32,90.51 -13.29,88.45 -13.58,86.13 -14.20,83.56"/>
    </edge>
    <edge id=":gneJ10_0" function="internal">
        <lane id=":gneJ10_0_0" index="0" disallow="pedestrian" speed="9.96" length="16.39" shape="69.23,-86.23 66.83,-86.24 63.86,-84.76 60.32,-81.80 56.22,-77.34"/>
    </edge>
    <edge id=":gneJ10_1" function="internal">
        <lane id=":gneJ10_1_0" index="0" disallow="pedestrian" speed="13.89" length="21.45" shape="69.23,-86.23 63.36,-88.00 58.87,-88.66 54.29,-88.81 48.10,-89.04"/>
    </edge>
    <edge id=":gneJ10_2" function="internal">
        <lane id=":gneJ10_2_0" index="0" disallow="pedestrian" speed="13.89" length="22.33" shape="48.30,-92.24 54.62,-91.98 59.51,-91.77 64.30,-91.04 70.30,-89.25"/>
    </edge>
    <edge id=":gneJ10_3" function="internal">
        <lane id=":gneJ10_3_0" index="0" disallow="pedestrian" speed="8.58" length="24.49" shape="48.30,-92.24 56.09,-90.85 60.01,-87.90 60.05,-83.40 56.22,-77.34"/>
    </edge>
    <edge id=":gneJ10_4" function="internal">
        <lane id=":gneJ10_4_0" index="0" disallow="pedestrian" speed="6.18" length="9.97" shape="51.33,-81.47 53.34,-84.57 53.48,-86.86 51.73,-88.35 50.08,-88.67"/>
    </edge>
    <edge id=":gneJ10_5" function="internal">
        <lane id=":gneJ10_5_0" index="0" disallow="pedestrian" speed="11.02" length="20.20" shape="53.77,-79.41 58.64,-84.56 63.01,-87.91 66.90,-89.48 70.30,-89.25"/>
    </edge>
    <edge id=":gneJ10_6" function="internal">
        <lane id=":gneJ10_6_0" index="0" disallow="pedestrian" speed="6.18" length="2.02" shape="50.08,-88.67 48.10,-89.04"/>
    </edge>
    <edge id=":gneJ10_c0" function="crossing" crossingEdges="gneE14 -gneE14.46">
        <lane id=":gneJ10_c0_0" index="0" allow="pedestrian" speed="1.00" length="6.40" width="2.00" shape="69.90,-91.09 67.75,-85.06"/>
    </edge>
    <edge id=":gneJ10_c1" function="crossing" crossingEdges="-gneE13 gneE13">
        <lane id=":gneJ10_c1_0" index="0" allow="pedestrian" speed="1.00" length="6.40" width="2.00" shape="49.00,-87.38 49.39,-93.77"/>
    </edge>
    <edge id=":gneJ10_c2" function="crossing" crossingEdges="-gneE19 gneE19">
        <lane id=":gneJ10_c2_0" index="0" allow="pedestrian" speed="1.00" length="9.60" width="2.00" shape="58.09,-77.08 50.75,-83.27"/>
    </edge>
    <edge id=":gneJ10_w0" function="walkingarea">
        <lane id=":gneJ10_w0_0" index="0" allow="pedestrian" speed="1.00" length="9.00" width="2.00" shape="57.44,-76.31 58.97,-75.02 68.02,-82.84 68.69,-84.73 67.50,-84.81 66.03,-84.30 64.29,-83.19 62.28,-81.49 59.99,-79.20"/>
    </edge>
    <edge id=":gneJ10_w1" function="walkingarea">
        <lane id=":gneJ10_w1_0" index="0" allow="pedestrian" speed="1.00" length="15.01" width="2.00" shape="70.84,-90.75 71.51,-92.64 48.52,-95.83 48.40,-93.83 53.24,-93.62 56.87,-93.56 59.86,-93.45 62.79,-93.08 66.26,-92.25"/>
    </edge>
    <edge id=":gneJ10_w2" function="walkingarea">
        <lane id=":gneJ10_w2_0" index="0" allow="pedestrian" speed="1.00" length="3.23" width="2.00" shape="48.00,-87.44 47.87,-85.45 48.58,-83.80 50.11,-82.51 51.12,-83.91 51.59,-85.08 51.51,-86.02 50.88,-86.73 49.71,-87.20"/>
    </edge>
    <edge id=":gneJ11_0" function="internal">
        <lane id=":gneJ11_0_0" index="0" disallow="pedestrian" speed="7.88" length="11.10" shape="148.15,-25.93 145.67,-25.92 143.44,-24.51 141.45,-21.71 140.48,-19.36"/>
    </edge>
    <edge id=":gneJ11_1" function="internal">
        <lane id=":gneJ11_1_0" index="0" disallow="pedestrian" speed="13.89" length="17.64" shape="148.15,-25.93 143.11,-26.96 139.54,-26.90 135.97,-25.99 130.96,-24.44"/>
    </edge>
    <edge id=":gneJ11_2" function="internal">
        <lane id=":gneJ11_2_0" index="0" disallow="pedestrian" speed="13.67" length="7.03" shape="148.15,-25.93 143.59,-27.40 141.68,-28.57"/>
    </edge>
    <edge id=":gneJ11_12" function="internal">
        <lane id=":gneJ11_12_0" index="0" disallow="pedestrian" speed="7.88" length="2.01" shape="140.48,-19.36 139.71,-17.51"/>
    </edge>
    <edge id=":gneJ11_13" function="internal">
        <lane id=":gneJ11_13_0" index="0" disallow="pedestrian" speed="13.67" length="9.48" shape="141.68,-28.57 140.70,-29.17 138.47,-31.82 135.88,-35.94"/>
    </edge>
    <edge id=":gneJ11_3" function="internal">
        <lane id=":gneJ11_3_0" index="0" disallow="pedestrian" speed="12.63" length="14.04" shape="138.60,-37.62 140.80,-34.10 142.67,-31.82 145.10,-30.29 148.97,-29.02"/>
    </edge>
    <edge id=":gneJ11_4" function="internal">
        <lane id=":gneJ11_4_0" index="0" disallow="pedestrian" speed="13.86" length="18.78" shape="138.60,-37.62 140.56,-33.30 141.40,-28.50 141.12,-23.24 140.19,-19.45"/>
    </edge>
    <edge id=":gneJ11_5" function="internal">
        <lane id=":gneJ11_5_0" index="0" disallow="pedestrian" speed="8.31" length="8.35" shape="138.60,-37.62 140.28,-33.30 139.57,-29.66"/>
    </edge>
    <edge id=":gneJ11_14" function="internal">
        <lane id=":gneJ11_14_0" index="0" disallow="pedestrian" speed="13.86" length="2.01" shape="140.19,-19.45 139.71,-17.51"/>
    </edge>
    <edge id=":gneJ11_15" function="internal">
        <lane id=":gneJ11_15_0" index="0" disallow="pedestrian" speed="8.31" length="10.23" shape="139.57,-29.66 136.46,-26.71 130.96,-24.44"/>
    </edge>
    <edge id=":gneJ11_6" function="internal">
        <lane id=":gneJ11_6_0" index="0" disallow="pedestrian" speed="6.88" length="10.30" shape="130.08,-27.52 133.95,-29.05 136.20,-30.96 136.84,-33.26 136.57,-34.02"/>
    </edge>
    <edge id=":gneJ11_7" function="internal">
        <lane id=":gneJ11_7_0" index="0" disallow="pedestrian" speed="13.89" length="19.37" shape="130.08,-27.52 135.59,-29.19 139.50,-30.16 143.43,-30.18 148.97,-29.02"/>
    </edge>
    <edge id=":gneJ11_8" function="internal">
        <lane id=":gneJ11_8_0" index="0" disallow="pedestrian" speed="7.83" length="7.32" shape="130.08,-27.52 136.04,-28.43 137.25,-27.97"/>
    </edge>
    <edge id=":gneJ11_16" function="internal">
        <lane id=":gneJ11_16_0" index="0" disallow="pedestrian" speed="6.88" length="2.04" shape="136.57,-34.02 135.88,-35.94"/>
    </edge>
    <edge id=":gneJ11_17" function="internal">
        <lane id=":gneJ11_17_0" index="0" disallow="pedestrian" speed="7.83" length="12.41" shape="137.25,-27.97 139.63,-27.06 140.85,-23.42 139.71,-17.51"/>
    </edge>
    <edge id=":gneJ11_9" function="internal">
        <lane id=":gneJ11_9_0" index="0" disallow="pedestrian" speed="6.18" length="9.68" shape="136.67,-18.51 137.35,-22.01 136.62,-24.17 134.49,-24.98 132.96,-24.75"/>
    </edge>
    <edge id=":gneJ11_10" function="internal">
        <lane id=":gneJ11_10_0" index="0" disallow="pedestrian" speed="12.92" length="15.98" shape="136.67,-18.51 137.92,-23.54 138.21,-28.13 137.52,-32.26 136.70,-34.10"/>
    </edge>
    <edge id=":gneJ11_11" function="internal">
        <lane id=":gneJ11_11_0" index="0" disallow="pedestrian" speed="9.14" length="6.83" shape="136.67,-18.51 139.00,-23.91 139.59,-24.65"/>
    </edge>
    <edge id=":gneJ11_18" function="internal">
        <lane id=":gneJ11_18_0" index="0" disallow="pedestrian" speed="6.18" length="2.02" shape="132.96,-24.75 130.96,-24.44"/>
    </edge>
    <edge id=":gneJ11_19" function="internal">
        <lane id=":gneJ11_19_0" index="0" disallow="pedestrian" speed="12.92" length="2.02" shape="136.70,-34.10 135.88,-35.94"/>
    </edge>
    <edge id=":gneJ11_20" function="internal">
        <lane id=":gneJ11_20_0" index="0" disallow="pedestrian" speed="9.14" length="11.15" shape="139.59,-24.65 141.83,-27.47 145.15,-29.17 148.97,-29.02"/>
    </edge>
    <edge id=":gneJ11_c0" function="crossing" crossingEdges="gneE16 -gneE16">
        <lane id=":gneJ11_c0_0" index="0" allow="pedestrian" speed="1.00" length="6.40" width="2.00" shape="148.41,-30.83 146.78,-24.64"/>
    </edge>
    <edge id=":gneJ11_c1" function="crossing" crossingEdges="-gneE14 gneE14.37">
        <lane id=":gneJ11_c1_0" index="0" allow="pedestrian" speed="1.00" length="6.40" width="2.00" shape="135.04,-34.25 140.49,-37.61"/>
    </edge>
    <edge id=":gneJ11_c2" function="crossing" crossingEdges="gneE15 -gneE15">
        <lane id=":gneJ11_c2_0" index="0" allow="pedestrian" speed="1.00" length="6.40" width="2.00" shape="132.37,-23.18 130.60,-29.33"/>
    </edge>
    <edge id=":gneJ11_c3" function="crossing" crossingEdges="-gneE18 gneE18">
        <lane id=":gneJ11_c3_0" index="0" allow="pedestrian" speed="1.00" length="6.40" width="2.00" shape="141.54,-17.96 135.47,-19.96"/>
    </edge>
    <edge id=":gneJ11_w0" function="walkingarea">
        <lane id=":gneJ11_w0_0" index="0" allow="pedestrian" speed="1.00" length="6.19" width="2.00" shape="141.23,-17.01 143.13,-16.38 147.23,-22.45 147.74,-24.38 146.52,-24.45 145.35,-24.01 144.24,-23.04 143.18,-21.55 142.18,-19.54"/>
    </edge>
    <edge id=":gneJ11_w1" function="walkingarea">
        <lane id=":gneJ11_w1_0" index="0" allow="pedestrian" speed="1.00" length="7.82" width="2.00" shape="149.38,-30.57 149.89,-32.51 141.66,-39.51 139.96,-38.46 141.37,-36.17 142.52,-34.44 143.65,-33.14 145.01,-32.15 146.84,-31.34"/>
    </edge>
    <edge id=":gneJ11_w2" function="walkingarea">
        <lane id=":gneJ11_w2_0" index="0" allow="pedestrian" speed="1.00" length="4.81" width="2.00" shape="134.51,-35.10 132.81,-34.05 129.09,-30.98 129.64,-29.05 131.81,-29.81 133.43,-30.66 134.51,-31.61 135.05,-32.67 135.06,-33.83"/>
    </edge>
    <edge id=":gneJ11_w3" function="walkingarea">
        <lane id=":gneJ11_w3_0" index="0" allow="pedestrian" speed="1.00" length="3.25" width="2.00" shape="131.40,-22.90 131.96,-20.98 133.25,-19.63 135.15,-19.01 135.55,-20.64 135.54,-21.88 135.12,-22.73 134.29,-23.18 133.05,-23.24"/>
    </edge>
    <edge id=":gneJ12_0" function="internal">
        <lane id=":gneJ12_0_0" index="0" disallow="pedestrian" speed="13.89" length="13.54" shape="211.68,-14.86 209.08,-11.81 207.49,-9.57 206.11,-7.18 204.18,-3.65"/>
    </edge>
    <edge id=":gneJ12_1" function="internal">
        <lane id=":gneJ12_1_0" index="0" disallow="pedestrian" speed="9.90" length="4.86" shape="211.68,-14.86 209.30,-12.99 207.55,-12.43"/>
    </edge>
    <edge id=":gneJ12_6" function="internal">
        <lane id=":gneJ12_6_0" index="0" disallow="pedestrian" speed="9.90" length="9.49" shape="207.55,-12.43 206.26,-12.01 202.56,-11.91 198.21,-12.71"/>
    </edge>
    <edge id=":gneJ12_2" function="internal">
        <lane id=":gneJ12_2_0" index="0" disallow="pedestrian" speed="8.66" length="10.82" shape="199.02,-15.80 202.46,-15.13 205.32,-15.11 207.59,-15.73 209.28,-16.99"/>
    </edge>
    <edge id=":gneJ12_3" function="internal">
        <lane id=":gneJ12_3_0" index="0" disallow="pedestrian" speed="7.82" length="16.11" shape="199.02,-15.80 203.25,-14.01 205.52,-11.39 205.83,-7.94 204.18,-3.65"/>
    </edge>
    <edge id=":gneJ12_4" function="internal">
        <lane id=":gneJ12_4_0" index="0" disallow="pedestrian" speed="6.28" length="7.92" shape="201.39,-5.21 202.40,-7.86 202.21,-9.98 200.81,-11.60 200.07,-11.92"/>
    </edge>
    <edge id=":gneJ12_5" function="internal">
        <lane id=":gneJ12_5_0" index="0" disallow="pedestrian" speed="13.89" length="14.23" shape="201.39,-5.21 203.42,-8.92 204.87,-11.43 206.55,-13.78 209.28,-16.99"/>
    </edge>
    <edge id=":gneJ12_7" function="internal">
        <lane id=":gneJ12_7_0" index="0" disallow="pedestrian" speed="6.28" length="2.02" shape="200.07,-11.92 198.21,-12.71"/>
    </edge>
    <edge id=":gneJ12_c0" function="crossing" crossingEdges="gneE24 -gneE24">
        <lane id=":gneJ12_c0_0" index="0" allow="pedestrian" speed="1.00" length="6.40" width="2.00" shape="207.42,-17.30 212.21,-13.06"/>
    </edge>
    <edge id=":gneJ12_c1" function="crossing" crossingEdges="-gneE16 gneE16">
        <lane id=":gneJ12_c1_0" index="0" allow="pedestrian" speed="1.00" length="6.40" width="2.00" shape="198.76,-10.90 200.40,-17.09"/>
    </edge>
    <edge id=":gneJ12_c2" function="crossing" crossingEdges="gneE17 -gneE17">
        <lane id=":gneJ12_c2_0" index="0" allow="pedestrian" speed="1.00" length="6.40" width="2.00" shape="206.07,-3.74 200.48,-6.87"/>
    </edge>
    <edge id=":gneJ12_w0" function="walkingarea">
        <lane id=":gneJ12_w0_0" index="0" allow="pedestrian" speed="1.00" length="8.52" width="2.00" shape="205.58,-2.87 207.32,-1.90 214.37,-12.48 212.88,-13.80 211.04,-11.68 209.76,-10.06 208.79,-8.64 207.93,-7.16 206.93,-5.33"/>
    </edge>
    <edge id=":gneJ12_w1" function="walkingarea">
        <lane id=":gneJ12_w1_0" index="0" allow="pedestrian" speed="1.00" length="5.41" width="2.00" shape="208.08,-18.05 206.59,-19.37 199.94,-19.28 199.43,-17.35 201.48,-16.89 203.29,-16.66 204.85,-16.66 206.17,-16.89 207.25,-17.36"/>
    </edge>
    <edge id=":gneJ12_w2" function="walkingarea">
        <lane id=":gneJ12_w2_0" index="0" allow="pedestrian" speed="1.00" length="3.35" width="2.00" shape="197.80,-11.16 197.29,-9.23 198.25,-6.97 199.99,-5.99 200.55,-7.25 200.74,-8.34 200.56,-9.28 200.01,-10.07 199.09,-10.69"/>
    </edge>
    <edge id=":gneJ13_w0" function="walkingarea">
        <lane id=":gneJ13_w0_0" index="0" allow="pedestrian" speed="1.00" length="8.40" width="2.00" shape="79.63,60.53 79.36,62.51 80.78,52.21 80.51,54.19"/>
    </edge>
    <edge id=":gneJ14_0" function="internal">
        <lane id=":gneJ14_0_0" index="0" disallow="pedestrian" speed="8.99" length="5.96" shape="206.45,64.06 204.87,64.79 203.45,65.96 202.18,67.58 202.02,67.87"/>
    </edge>
    <edge id=":gneJ14_1" function="internal">
        <lane id=":gneJ14_1_0" index="0" disallow="pedestrian" speed="9.50" length="3.57" shape="206.45,64.06 204.04,64.46 202.91,64.34"/>
    </edge>
    <edge id=":gneJ14_6" function="internal">
        <lane id=":gneJ14_6_0" index="0" disallow="pedestrian" speed="8.99" length="2.00" shape="202.02,67.87 201.06,69.63"/>
    </edge>
    <edge id=":gneJ14_7" function="internal">
        <lane id=":gneJ14_7_0" index="0" disallow="pedestrian" speed="9.50" length="7.09" shape="202.91,64.34 201.58,64.19 199.05,63.25 196.47,61.63"/>
    </edge>
    <edge id=":gneJ14_2" function="internal">
        <lane id=":gneJ14_2_0" index="0" disallow="pedestrian" speed="8.12" length="7.64" shape="198.38,59.07 200.30,60.29 202.12,61.02 203.85,61.26 205.49,61.00"/>
    </edge>
    <edge id=":gneJ14_3" function="internal">
        <lane id=":gneJ14_3_0" index="0" disallow="pedestrian" speed="8.00" length="11.93" shape="198.38,59.07 200.65,61.30 201.86,63.81 201.99,66.58 201.06,69.63"/>
    </edge>
    <edge id=":gneJ14_4" function="internal">
        <lane id=":gneJ14_4_0" index="0" disallow="pedestrian" speed="6.48" length="5.51" shape="198.15,68.28 198.74,66.37 198.66,64.62 197.90,63.04"/>
    </edge>
    <edge id=":gneJ14_5" function="internal">
        <lane id=":gneJ14_5_0" index="0" disallow="pedestrian" speed="10.32" length="10.64" shape="198.15,68.28 199.62,65.64 201.33,63.55 203.29,62.00 205.49,61.00"/>
    </edge>
    <edge id=":gneJ14_8" function="internal">
        <lane id=":gneJ14_8_0" index="0" disallow="pedestrian" speed="6.48" length="2.01" shape="197.90,63.04 196.47,61.63"/>
    </edge>
    <edge id=":gneJ14_c0" function="crossing" crossingEdges="gneE22 -gneE22">
        <lane id=":gneJ14_c0_0" index="0" allow="pedestrian" speed="1.00" length="6.40" width="2.00" shape="204.06,59.77 205.97,65.88"/>
    </edge>
    <edge id=":gneJ14_c1" function="crossing" crossingEdges="-gneE21 gneE21">
        <lane id=":gneJ14_c1_0" index="0" allow="pedestrian" speed="1.00" length="6.40" width="2.00" shape="196.31,63.51 200.14,58.39"/>
    </edge>
    <edge id=":gneJ14_c2" function="crossing" crossingEdges="gneE23 -gneE23">
        <lane id=":gneJ14_c2_0" index="0" allow="pedestrian" speed="1.00" length="6.40" width="2.00" shape="202.93,69.39 197.12,66.71"/>
    </edge>
    <edge id=":gneJ14_w0" function="walkingarea">
        <lane id=":gneJ14_w0_0" index="0" allow="pedestrian" speed="1.00" length="3.96" width="2.00" shape="202.51,70.30 204.33,71.14 207.52,67.49 206.92,65.58 206.07,65.94 205.27,66.47 204.51,67.17 203.80,68.04 203.13,69.08"/>
    </edge>
    <edge id=":gneJ14_w1" function="walkingarea">
        <lane id=":gneJ14_w1_0" index="0" allow="pedestrian" speed="1.00" length="3.59" width="2.00" shape="205.01,59.48 204.42,57.57 200.54,56.19 199.34,57.79 200.41,58.51 201.42,59.06 202.39,59.43 203.31,59.62 204.19,59.64"/>
    </edge>
    <edge id=":gneJ14_w2" function="walkingarea">
        <lane id=":gneJ14_w2_0" index="0" allow="pedestrian" speed="1.00" length="2.86" width="2.00" shape="195.51,62.91 194.31,64.52 194.88,66.78 196.70,67.61 197.03,66.70 197.15,65.83 197.06,65.02 196.75,64.27 196.24,63.56"/>
    </edge>
    <edge id=":gneJ15_w0" function="walkingarea">
        <lane id=":gneJ15_w0_0" index="0" allow="pedestrian" speed="1.00" length="8.40" width="2.00" shape="236.73,56.26 237.33,58.17 234.23,48.25 234.83,50.16"/>
    </edge>
    <edge id=":gneJ16_w0" function="walkingarea">
        <lane id=":gneJ16_w0_0" index="0" allow="pedestrian" speed="1.00" length="8.40" width="2.00" shape="183.07,97.11 181.26,96.27 190.70,100.63 188.89,99.79"/>
    </edge>
    <edge id=":gneJ17_w0" function="walkingarea">
        <lane id=":gneJ17_w0_0" index="0" allow="pedestrian" speed="1.00" length="8.40" width="2.00" shape="243.72,-48.63 245.21,-47.30 237.43,-54.20 238.92,-52.87"/>
    </edge>
    <edge id=":gneJ18_w0" function="walkingarea">
        <lane id=":gneJ18_w0_0" index="0" allow="pedestrian" speed="1.00" length="8.40" width="2.00" shape="-55.44,-109.56 -54.80,-111.45 -58.10,-101.59 -57.46,-103.48"/>
    </edge>
    <edge id=":gneJ19_0" function="internal">
        <lane id=":gneJ19_0_0" index="0" disallow="pedestrian" speed="8.46" length="5.56" shape="130.05,148.97 127.95,148.86 126.07,149.15 124.63,149.72"/>
    </edge>
    <edge id=":gneJ19_1" function="internal">
        <lane id=":gneJ19_1_0" index="0" disallow="pedestrian" speed="8.18" length="4.18" shape="130.05,148.97 127.22,148.21 126.17,147.53"/>
    </edge>
    <edge id=":gneJ19_6" function="internal">