<?xml version="1.0" encoding="UTF-8"?>

<!-- generated on 03/05/20 14:07:10 by Eclipse SUMO duarouter Version 1.5.0
<configuration xmlns:xsi="http://www.w3.org/2001/XMLSchema-instance" xsi:noNamespaceSchemaLocation="http://sumo.dlr.de/xsd/duarouterConfiguration.xsd">

    <input>
        <net-file value="helloo.net.xml"/>
        <additional-files value="helloo.add.xml"/>
        <route-files value="trips.trips.xml"/>
    </input>

    <output>
        <output-file value="helloo.rou.xml"/>
        <alternatives-output value="helloo.rou.alt.xml"/>
    </output>

    <time>
        <begin value="0"/>
        <end value="2200.0"/>
    </time>

    <report>
        <no-warnings value="true"/>
        <ignore-errors value="true"/>
        <no-step-log value="true"/>
    </report>

</configuration>
-->

<routes xmlns:xsi="http://www.w3.org/2001/XMLSchema-instance" xsi:noNamespaceSchemaLocation="http://sumo.dlr.de/xsd/routes_file.xsd">
    <person id="0" depart="0.00">
        <walk edges="gneE77 -gneE49 -gneE30 -gneE0 -gneE1 gneE26"/>
    </person>
    <vehicle id="1_0" depart="triggered">
        <route edges="-gneE1 -gneE0 -gneE11 -gneE10 -gneE9 gneE7"/>
    </vehicle>
    <person id="1" depart="3.00">
        <ride from="-gneE1" to="gneE7" lines="1_0"/>
    </person>
    <vehicle id="2_0" depart="triggered">
        <route edges="gneE52 gneE53 -gneE55 gneE56 gneE39 gneE1 -gneE4 -gneE17"/>
    </vehicle>
    <person id="2" depart="6.00">
        <ride from="gneE52" to="-gneE17" lines="2_0"/>
    </person>
    <vehicle id="3_0" depart="triggered">
        <route edges="-gneE56 gneE55 -gneE53 -gneE52 -gneE50 -gneE29 -gneE28 gneE12 gneE13 -gneE19"/>
    </vehicle>
    <person id="3" depart="9.00">
        <ride from="-gneE56" to="-gneE19" lines="3_0"/>
    </person>
    <vehicle id="4_0" depart="triggered">
        <route edges="gneE51 -gneE46 -gneE45 -gneE43 gneE38"/>
    </vehicle>
    <person id="4" depart="12.00">
        <ride from="gneE51" to="gneE38" lines="4_0"/>
    </person>
    <vehicle id="5_0" depart="triggered">
        <route edges="gneE26 gneE35 gneE36 gneE37 gneE38 -gneE56 -gneE54"/>
    </vehicle>
    <person id="5" depart="15.00">
        <ride from="gneE26" to="-gneE54" lines="5_0"/>
    </person>
    <vehicle id="6_0" depart="triggered">
        <route edges="-gneE68 -gneE66 gneE40 -gneE41 -gneE56 -gneE54 -gneE64 -gneE60 -gneE58"/>
    </vehicle>
    <person id="6" depart="18.00">
        <ride from="-gneE68" to="-gneE58" lines="6_0"/>
    </person>
    <vehicle id="7_0" depart="triggered">
        <route edges="-gneE43 gneE38 gneE39 -gneE0 -gneE11 -gneE10 -gneE9 gneE7 gneE8"/>
    </vehicle>
    <person id="7" depart="21.00">
        <ride from="-gneE43" to="gneE8" lines="7_0"/>
    </person>
    <vehicle id="8_0" depart="triggered">
        <route edges="-gneE7 gneE9 gneE10 gneE11 gneE0 -gneE39 -gneE56 -gneE54 -gneE64 -gneE60"/>
    </vehicle>
    <person id="8" depart="24.00">
        <ride from="-gneE7" to="-gneE60" lines="8_0"/>
    </person>
    <vehicle id="9_0" depart="triggered">
        <route edges="gneE36 gneE37 gneE38 gneE39 gneE1 -gneE4 -gneE17"/>
    </vehicle>
    <person id="9" depart="27.00">
        <ride from="gneE36" to="-gneE17" lines="9_0"/>
    </person>
    <vehicle id="10_0" depart="triggered">
        <route edges="-gneE55 gneE56 gneE39 -gneE0 -gneE11 -gneE10 gneE19 gneE14"/>
    </vehicle>
    <person id="10" depart="30.00">
        <ride from="-gneE55" to="gneE14" lines="10_0"/>
    </person>
    <vehicle id="11_0" depart="triggered">
        <route edges="-gneE8 -gneE7 gneE9 gneE10 gneE12 gneE13"/>
    </vehicle>
    <person id="11" depart="33.00">
        <ride from="-gneE8" to="gneE13" lines="11_0"/>
    </person>
    <vehicle id="12_0" depart="triggered">
        <route edges="gneE11 gneE0 -gneE39 gneE41"/>
    </vehicle>
    <person id="12" depart="36.00">
        <ride from="gneE11" to="gneE41" lines="12_0"/>
    </person>
    <vehicle id="13_0" depart="triggered">
        <route edges="-gneE19 gneE10 gneE28 gneE29 gneE50"/>
    </vehicle>
    <person id="13" depart="39.00">
        <ride from="-gneE19" to="gneE50" lines="13_0"/>
    </person>
    <vehicle id="14_0" depart="triggered">
        <route edges="-gneE67 -gneE66"/>
    </vehicle>
    <person id="14" depart="42.00">
        <ride from="-gneE67" to="-gneE66" lines="14_0"/>
    </person>
    <vehicle id="15_0" depart="triggered">
        <route edges="-gneE14.46 -gneE19 gneE10 gneE11 -gneE30 -gneE49 -gneE48 -gneE47"/>
    </vehicle>
    <person id="15" depart="45.00">
        <ride from="-gneE14.46" to="-gneE47" lines="15_0"/>
    </person>
    <vehicle id="16_0" depart="triggered">
        <route edges="-gneE7 gneE9 gneE10 gneE11 gneE0 -gneE39 gneE41"/>
    </vehicle>
    <person id="16" depart="48.00">
        <ride from="-gneE7" to="gneE41" lines="16_0"/>
    </person>
    <person id="17" depart="51.00">
        <walk edges="-gneE2 gneE5 gneE9 gneE10 -gneE11 gneE30 gneE49 -gneE77"/>
    </person>
    <person id="18" depart="54.00">
        <walk edges="gneE47 gneE51 gneE50 -gneE30 gneE11 gneE10 -gneE19 -gneE14.46 -gneE32"/>
    </person>
    <vehicle id="19_0" depart="triggered">
        <route edges="gneE36 gneE37 gneE38 gneE39 -gneE0 -gneE30 -gneE29 gneE31 gneE70"/>
    </vehicle>
    <person id="19" depart="57.00">
        <ride from="gneE36" to="gneE70" lines="19_0"/>
    </person>
    <person id="20" depart="60.00">
        <walk edges="gneE45 gneE43 gneE37 gneE36 gneE35 gneE26 gneE4 -gneE21 -gneE22"/>
    </person>
    <vehicle id="21_0" depart="triggered">
        <route edges="gneE31 gneE69 gneE73 gneE76 -gneE48 gneE58 gneE60 gneE64 -gneE45"/>
    </vehicle>
    <person id="21" depart="63.00">
        <ride from="gneE31" to="-gneE45" lines="21_0"/>
    </person>
    <vehicle id="22_0" depart="triggered">
        <route edges="gneE5 gneE7 gneE8 -gneE39 -gneE56 -gneE54 -gneE64 gneE61 gneE63"/>
    </vehicle>
    <person id="22" depart="66.00">
        <ride from="gneE5" to="gneE63" lines="22_0"/>
    </person>
    <vehicle id="23_0" depart="triggered">
        <route edges="-gneE9 gneE7 gneE8 -gneE0 -gneE30 -gneE49 -gneE76 -gneE73 -gneE69"/>
    </vehicle>
    <person id="23" depart="69.00">
        <ride from="-gneE9" to="-gneE69" lines="23_0"/>
    </person>
    <vehicle id="24_0" depart="triggered">
        <route edges="-gneE51 -gneE50 -gneE49 -gneE48 -gneE47"/>
    </vehicle>
    <person id="24" depart="72.00">
        <ride from="-gneE51" to="-gneE47" lines="24_0"/>
    </person>
    <vehicle id="25_0" depart="triggered">
        <route edges="-gneE24 -gneE16 -gneE14 -gneE14.46 -gneE13 gneE25"/>
    </vehicle>
    <person id="25" depart="75.00">
        <ride from="-gneE24" to="gneE25" lines="25_0"/>
    </person>
    <vehicle id="26_0" depart="triggered">
        <route edges="-gneE21 -gneE3 gneE18 -gneE14 gneE32"/>
    </vehicle>
    <person id="26" depart="78.00">
        <ride from="-gneE21" to="gneE32" lines="26_0"/>
    </person>
    <vehicle id="27_0" depart="triggered">
        <route edges="gneE10 gneE28 gneE29 gneE50 gneE51"/>
    </vehicle>
    <person id="27" depart="81.00">
        <ride from="gneE10" to="gneE51" lines="27_0"/>
    </person>
    <vehicle id="28_0" depart="triggered">
        <route edges="gneE12 gneE13 -gneE19 gneE10 gneE28 gneE31 gneE69 gneE73 gneE76"/>
    </vehicle>
    <person id="28" depart="84.00">
        <ride from="gneE12" to="gneE76" lines="28_0"/>
    </person>
    <vehicle id="29_0" depart="triggered">
        <route edges="-gneE19 gneE10 gneE11 gneE0 -gneE39 -gneE56 -gneE54 -gneE64 -gneE60"/>
    </vehicle>
    <person id="29" depart="87.00">
        <ride from="-gneE19" to="-gneE60" lines="29_0"/>
    </person>
    <vehicle id="30_0" depart="triggered">
        <route edges="gneE2 gneE5 gneE9 gneE10 gneE11 -gneE30 -gneE49 -gneE76"/>
    </vehicle>
    <person id="30" depart="90.00">
        <ride from="gneE2" to="-gneE76" lines="30_0"/>
    </person>
    <vehicle id="31_0" depart="triggered">
        <route edges="-gneE65 -gneE43 -gneE37"/>
    </vehicle>
    <person id="31" depart="93.00">
        <ride from="-gneE65" to="-gneE37" lines="31_0"/>
    </person>
    <vehicle id="32_0" depart="triggered">
        <route edges="gneE54 gneE55 -gneE53 -gneE52 -gneE50 -gneE29 gneE31"/>
    </vehicle>
    <person id="32" depart="96.00">
        <ride from="gneE54" to="gneE31" lines="32_0"/>
    </person>
    <vehicle id="33_0" depart="triggered">
        <route edges="gneE31 gneE69 gneE73 gneE76 gneE49 gneE30 gneE0 -gneE39 -gneE38 -gneE37 -gneE36 -gneE35 -gneE26"/>
    </vehicle>
    <person id="33" depart="99.00">
        <ride from="gneE31" to="-gneE26" lines="33_0"/>
    </person>
    <vehicle id="34_0" depart="triggered">
        <route edges="-gneE51 gneE52 gneE53 -gneE55 -gneE54 -gneE45 -gneE43"/>
    </vehicle>
    <person id="34" depart="102.00">
        <ride from="-gneE51" to="-gneE43" lines="34_0"/>
    </person>
    <person id="35" depart="105.00">
        <walk edges="gneE73 gneE69 gneE31 gneE28 gneE10 gneE9 gneE5 -gneE3 -gneE21 -gneE23"/>
    </person>
    <vehicle id="36_0" depart="triggered">
        <route edges="gneE52 gneE53 -gneE55 gneE56 -gneE38 gneE43 gneE45"/>
    </vehicle>
    <person id="36" depart="108.00">
        <ride from="gneE52" to="gneE45" lines="36_0"/>
    </person>
    <person id="37" depart="111.00">
        <walk edges="gneE34 -gneE26 gneE2 gneE5"/>
    </person>
    <vehicle id="38_0" depart="triggered">
        <route edges="gneE5 gneE7 gneE8 -gneE39 -gneE38 gneE43 gneE45 gneE54"/>
    </vehicle>
    <person id="38" depart="114.00">
        <ride from="gneE5" to="gneE54" lines="38_0"/>
    </person>
    <vehicle id="39_0" depart="triggered">
        <route edges="gneE58 gneE60 gneE64 gneE46 -gneE51 -gneE50 -gneE29 gneE31 gneE69 gneE73"/>
    </vehicle>
    <person id="39" depart="117.00">
        <ride from="gneE58" to="gneE73" lines="39_0"/>
    </person>
    <person id="40" depart="120.00">
        <walk edges="gneE46 gneE54 gneE55 gneE57 -gneE57"/>
    </person>
    <vehicle id="41_0" depart="triggered">
        <route edges="-gneE15 -gneE14 -gneE14.46 -gneE19 gneE10 gneE28 gneE29 gneE50 gneE51"/>
    </vehicle>
    <person id="41" depart="123.00">
        <ride from="-gneE15" to="gneE51" lines="41_0"/>
    </person>
    <vehicle id="42_0" depart="triggered">
        <route edges="-gneE30 gneE50 gneE52 gneE53 -gneE55 gneE56 -gneE38 -gneE37 gneE66 gneE67"/>
    </vehicle>
    <person id="42" depart="126.00">
        <ride from="-gneE30" to="gneE67" lines="42_0"/>
    </person>
    <vehicle id="43_0" depart="triggered">
        <route edges="gneE54 gneE55 -gneE53 -gneE52 -gneE50 -gneE49 -gneE76 -gneE73 -gneE69"/>
    </vehicle>
    <person id="43" depart="129.00">
        <ride from="gneE54" to="-gneE69" lines="43_0"/>
    </person>
    <vehicle id="44_0" depart="triggered">
        <route edges="gneE29 -gneE49 -gneE76 -gneE73 gneE72 -gneE75"/>
    </vehicle>
    <person id="44" depart="132.00">
        <ride from="gneE29" to="-gneE75" lines="44_0"/>
    </person>
    <vehicle id="45_0" depart="triggered">
        <route edges="gneE40 -gneE41 gneE39 gneE1"/>
    </vehicle>
    <person id="45" depart="135.00">
        <ride from="gneE40" to="gneE1" lines="45_0"/>
    </person>
    <vehicle id="46_0" depart="triggered">
        <route edges="-gneE55 gneE56 gneE39 -gneE8 -gneE7 gneE9 gneE10"/>
    </vehicle>
    <person id="46" depart="138.00">
        <ride from="-gneE55" to="gneE10" lines="46_0"/>
    </person>
    <person id="47" depart="141.00">
        <walk edges="gneE60 -gneE58 gneE48 gneE77 -gneE78"/>
    </person>
    <person id="48" depart="144.00">
        <walk edges="gneE20 gneE8 -gneE39"/>
    </person>
    <vehicle id="49_0" depart="triggered">
        <route edges="-gneE14 -gneE14.46 -gneE19 gneE10 gneE28 gneE31 gneE69 gneE73 gneE74 gneE75 -gneE72"/>
    </vehicle>
    <person id="49" depart="147.00">
        <ride from="-gneE14" to="-gneE72" lines="49_0"/>
    </person>
    <vehicle id="50_0" depart="triggered">
        <route edges="-gneE30 -gneE49"/>
    </vehicle>
    <person id="50" depart="150.00">
        <ride from="-gneE30" to="-gneE49" lines="50_0"/>
    </person>
    <vehicle id="51_0" depart="triggered">
        <route edges="gneE35 gneE36 gneE37 gneE38 gneE39 -gneE0 -gneE30 -gneE49 -gneE76 gneE74 gneE75 -gneE72"/>
    </vehicle>
    <person id="51" depart="153.00">
        <ride from="gneE35" to="-gneE72" lines="51_0"/>
    </person>
    <person id="52" depart="156.00">
        <walk edges="gneE70 -gneE31 gneE29 gneE30 -gneE0"/>
    </person>
    <vehicle id="53_0" depart="triggered">
        <route edges="-gneE15 -gneE14 -gneE14.46 -gneE19 gneE10 gneE28 gneE31 gneE69 gneE72"/>
    </vehicle>
    <person id="53" depart="159.00">
        <ride from="-gneE15" to="gneE72" lines="53_0"/>
    </person>
    <vehicle id="54_0" depart="triggered">
        <route edges="-gneE67 -gneE66 gneE37 gneE38 gneE39 -gneE0 -gneE30 -gneE49 -gneE48"/>
    </vehicle>
    <person id="54" depart="162.00">
        <ride from="-gneE67" to="-gneE48" lines="54_0"/>
    </person>
    <person id="55" depart="165.00">
        <walk edges="gneE71 gneE70 -gneE31 gneE29 gneE30 -gneE0"/>
    </person>
    <vehicle id="56_0" depart="triggered">
        <route edges="gneE41 -gneE40 -gneE36 -gneE35 -gneE26 gneE2 gneE5 gneE7"/>
    </vehicle>
    <person id="56" depart="168.00">
        <ride from="gneE41" to="gneE7" lines="56_0"/>
    </person>
    <vehicle id="57_0" depart="triggered">
        <route edges="gneE19 -gneE13 -gneE12 gneE11 -gneE30 -gneE49 -gneE48"/>
    </vehicle>
    <person id="57" depart="171.00">
        <ride from="gneE19" to="-gneE48" lines="57_0"/>
    </person>
    <vehicle id="58_0" depart="triggered">
        <route edges="-gneE18 gneE5 -gneE15 -gneE14 -gneE14.46 -gneE19 -gneE9"/>
    </vehicle>
    <person id="58" depart="174.00">
        <ride from="-gneE18" to="-gneE9" lines="58_0"/>
    </person>
    <vehicle id="59_0" depart="triggered">
        <route edges="-gneE66 gneE37 gneE38 gneE41"/>
    </vehicle>
    <person id="59" depart="177.00">
        <ride from="-gneE66" to="gneE41" lines="59_0"/>
    </person>
    <vehicle id="60_0" depart="triggered">
        <route edges="gneE41 -gneE40 gneE37 gneE38 gneE39 -gneE8 -gneE7 gneE9 gneE10"/>
    </vehicle>
    <person id="60" depart="180.00">
        <ride from="gneE41" to="gneE10" lines="60_0"/>
    </person>
    <person id="61" depart="183.00">
        <walk edges="gneE33 -gneE14.46 -gneE19 gneE10 gneE11 -gneE30 -gneE49 gneE77 gneE79 -gneE79"/>
    </person>
    <vehicle id="62_0" depart="triggered">
        <route edges="-gneE18 gneE5 gneE7 gneE8 -gneE39 -gneE56 -gneE54 -gneE64 -gneE60 gneE59"/>
    </vehicle>
    <person id="62" depart="186.00">
        <ride from="-gneE18" to="gneE59" lines="62_0"/>
    </person>
    <person id="63" depart="189.00">
        <walk edges="-gneE45 -gneE54 gneE56 gneE39 -gneE8 -gneE7 -gneE15 -gneE14 -gneE32"/>
    </person>
    <vehicle id="64_0" depart="triggered">
        <route edges="-gneE55 -gneE54 -gneE45"/>
    </vehicle>
    <person id="64" depart="192.00">
        <ride from="-gneE55" to="-gneE45" lines="64_0"/>
    </person>
    <person id="65" depart="195.00">
        <walk edges="gneE68 -gneE66 gneE37 -gneE43 -gneE45 gneE46"/>
    </person>
    <vehicle id="66_0" depart="triggered">
        <route edges="gneE40 -gneE41 -gneE38"/>
    </vehicle>
    <person id="66" depart="198.00">
        <ride from="gneE40" to="-gneE38" lines="66_0"/>
    </person>
    <vehicle id="67_0" depart="triggered">
        <route edges="-gneE59 gneE60 gneE64 gneE54 gneE56 gneE39 -gneE0 -gneE11 -gneE10 gneE19 gneE14"/>
    </vehicle>
    <person id="67" depart="201.00">
        <ride from="-gneE59" to="gneE14" lines="67_0"/>
    </person>
    <vehicle id="68_0" depart="triggered">
        <route edges="gneE76 gneE49 -gneE29"/>
    </vehicle>
    <person id="68" depart="204.00">
        <ride from="gneE76" to="-gneE29" lines="68_0"/>
    </person>
    <vehicle id="69_0" depart="triggered">
        <route edges="gneE10 gneE11 gneE0 -gneE39 -gneE56 gneE55 -gneE53 -gneE52"/>
    </vehicle>
    <person id="69" depart="207.00">
        <ride from="gneE10" to="-gneE52" lines="69_0"/>
    </person>
    <person id="70" depart="210.00">
        <walk edges="gneE20 gneE7 gneE15 -gneE14 -gneE14.46"/>
    </person>
    <vehicle id="71_0" depart="triggered">
        <route edges="-gneE73 -gneE69 -gneE31 -gneE28 -gneE10 -gneE9 -gneE15"/>
    </vehicle>
    <person id="71" depart="213.00">
        <ride from="-gneE73" to="-gneE15" lines="71_0"/>
    </person>
    <vehicle id="72_0" depart="triggered">
        <route edges="-gneE17 -gneE16 gneE15 gneE7 gneE8 -gneE39 -gneE56 -gneE54 -gneE64 gneE80"/>
    </vehicle>
    <person id="72" depart="216.00">
        <ride from="-gneE17" to="gneE80" lines="72_0"/>
    </person>
    <person id="73" depart="219.00">
        <walk edges="gneE22 gneE21 gneE3 -gneE5 -gneE9 -gneE10 -gneE28 -gneE31 -gneE69"/>
    </person>
    <vehicle id="74_0" depart="triggered">
        <route edges="gneE17 gneE4 -gneE1 -gneE39 -gneE38 -gneE37 -gneE36 -gneE35"/>
    </vehicle>
    <person id="74" depart="222.00">
        <ride from="gneE17" to="-gneE35" lines="74_0"/>
    </person>
    <person id="75" depart="225.00">
        <walk edges="gneE34 gneE35 gneE36 gneE37"/>
    </person>
    <person id="76" depart="228.00">
        <walk edges="gneE63 gneE61 gneE64"/>
    </person>
    <person id="77" depart="231.00">
        <walk edges="gneE59 -gneE60 -gneE64 gneE45 gneE43 gneE37 -gneE66"/>
    </person>
    <vehicle id="78_0" depart="triggered">
        <route edges="gneE17 gneE4 gneE26 gneE35 gneE36 gneE37 gneE43 gneE45 gneE54 gneE56"/>
    </vehicle>
    <person id="78" depart="234.00">
        <ride from="gneE17" to="gneE56" lines="78_0"/>
    </person>
    <vehicle id="79_0" depart="triggered">
        <route edges="-gneE13 -gneE12 gneE28 gneE29 gneE50 gneE52 gneE53 -gneE55 gneE56"/>
    </vehicle>
    <person id="79" depart="237.00">
        <ride from="-gneE13" to="gneE56" lines="79_0"/>
    </person>
    <vehicle id="80_0" depart="triggered">
        <route edges="-gneE59 gneE60 gneE64 -gneE45 gneE65"/>
    </vehicle>
    <person id="80" depart="240.00">
        <ride from="-gneE59" to="gneE65" lines="80_0"/>
    </person>
    <vehicle id="81_0" depart="triggered">
        <route edges="gneE16 gneE17 -gneE3 gneE5 gneE9 gneE10 gneE28 gneE31 gneE69 gneE73 gneE76"/>
    </vehicle>
    <person id="81" depart="243.00">
        <ride from="gneE16" to="gneE76" lines="81_0"/>
    </person>
    <vehicle id="82_0" depart="triggered">
        <route edges="gneE14.37 -gneE18 -gneE2 gneE26 gneE35 gneE36 gneE66"/>
    </vehicle>
    <person id="82" depart="246.00">
        <ride from="gneE14.37" to="gneE66" lines="82_0"/>
    </person>
    <person id="83" depart="249.00">
        <walk edges="gneE34 -gneE26 gneE2 gneE5 gneE9 gneE19 -gneE13"/>
    </person>
    <person id="84" depart="252.00">
        <walk edges="-gneE56 gneE38 gneE37 -gneE66 -gneE67"/>
    </person>
    <vehicle id="85_0" depart="triggered">
        <route edges="-gneE52 -gneE50 -gneE49 -gneE48 -gneE47"/>
    </vehicle>
    <person id="85" depart="255.00">
        <ride from="-gneE52" to="-gneE47" lines="85_0"/>
    </person>
    <person id="86" depart="258.00">
        <walk edges="gneE80 gneE60 gneE58 -gneE48 gneE76 -gneE73 gneE72"/>
    </person>
    <vehicle id="87_0" depart="triggered">
        <route edges="gneE60 gneE64 -gneE45 -gneE43"/>
    </vehicle>
    <person id="87" depart="261.00">
        <ride from="gneE60" to="-gneE43" lines="87_0"/>
    </person>
    <vehicle id="88_0" depart="triggered">
        <route edges="gneE47 gneE58 gneE60 gneE64 -gneE45 -gneE43 -gneE37 gneE66"/>
    </vehicle>
    <person id="88" depart="264.00">
        <ride from="gneE47" to="gneE66" lines="88_0"/>
    </person>
    <person id="89" depart="267.00">
        <walk edges="gneE21 -gneE17 -gneE16"/>
    </person>
    <person id="90" depart="270.00">
        <walk edges="gneE67 gneE66 gneE36 gneE35 gneE26 -gneE2 -gneE18 gneE14.37"/>
    </person>
    <person id="91" depart="273.00">
        <walk edges="gneE24 gneE17 gneE21"/>
    </person>
    <person id="92" depart="276.00">
        <walk edges="gneE16 -gneE15 -gneE9 gneE10 -gneE11 gneE30 gneE49 -gneE77 -gneE78"/>
    </person>
    <person id="93" depart="279.00">
        <walk edges="-gneE49 -gneE30 -gneE0 -gneE1 gneE4 -gneE21"/>
    </person>
    <vehicle id="94_0" depart="triggered">
        <route edges="gneE14 gneE14.37 gneE15 -gneE5 gneE18"/>
    </vehicle>
    <person id="94" depart="282.00">
        <ride from="gneE14" to="gneE18" lines="94_0"/>
    </person>
    <vehicle id="95_0" depart="triggered">
        <route edges="-gneE1 -gneE8 -gneE7 -gneE5 gneE3 gneE21 gneE22"/>
    </vehicle>
    <person id="95" depart="285.00">
        <ride from="-gneE1" to="gneE22" lines="95_0"/>
    </person>
    <person id="96" depart="288.00">
        <walk edges="gneE33 gneE14.37 gneE16 gneE24"/>
    </person>
    <person id="97" depart="291.00">
        <walk edges="gneE70 -gneE31 gneE29 gneE30 -gneE0 -gneE39 -gneE41"/>
    </person>
    <person id="98" depart="294.00">
        <walk edges="-gneE3 -gneE4 gneE26 gneE35 gneE36 gneE66 -gneE67"/>
    </person>
    <person id="99" depart="297.00">
        <walk edges="gneE53 -gneE55 -gneE56 gneE38 gneE37 -gneE66 -gneE68"/>
    </person>
    <vehicle id="100_0" depart="triggered">
        <route edges="-gneE42 -gneE41 gneE39 -gneE0 -gneE11 -gneE10 gneE19 gneE14 gneE14.37"/>
    </vehicle>
    <person id="100" depart="300.00">
        <ride from="-gneE42" to="gneE14.37" lines="100_0"/>
    </person>
    <vehicle id="101_0" depart="triggered">
        <route edges="gneE37 gneE38 -gneE56 -gneE54 -gneE45 -gneE43"/>
    </vehicle>
    <person id="101" depart="303.00">
        <ride from="gneE37" to="-gneE43" lines="101_0"/>
    </person>
    <vehicle id="102_0" depart="triggered">
        <route edges="-gneE41 gneE39 -gneE0 -gneE30 -gneE29 gneE31 gneE69 gneE72"/>
    </vehicle>
    <person id="102" depart="306.00">
        <ride from="-gneE41" to="gneE72" lines="102_0"/>
    </person>
    <vehicle id="103_0" depart="triggered">
        <route edges="gneE76 gneE49 gneE30 gneE0 gneE1"/>
    </vehicle>
    <person id="103" depart="309.00">
        <ride from="gneE76" to="gneE1" lines="103_0"/>
    </person>
    <vehicle id="104_0" depart="triggered">
        <route edges="-gneE43 -gneE37 -gneE36 -gneE35 -gneE26 -gneE4 gneE21 gneE23"/>
    </vehicle>
    <person id="104" depart="312.00">
        <ride from="-gneE43" to="gneE23" lines="104_0"/>
    </person>
    <vehicle id="105_0" depart="triggered">
        <route edges="-gneE46 gneE54 gneE55 -gneE53"/>
    </vehicle>
    <person id="105" depart="315.00">
        <ride from="-gneE46" to="-gneE53" lines="105_0"/>
    </person>
    <vehicle id="106_0" depart="triggered">
        <route edges="gneE2 gneE5 gneE9 gneE19 gneE14 gneE14.37"/>
    </vehicle>
    <person id="106" depart="318.00">
        <ride from="gneE2" to="gneE14.37" lines="106_0"/>
    </person>
    <person id="107" depart="321.00">
        <walk edges="gneE42 -gneE40 -gneE36 -gneE35 gneE26 -gneE2"/>
    </person>
    <person id="108" depart="324.00">
        <walk edges="-gneE66 gneE37 gneE43 gneE45 -gneE64 -gneE61"/>
    </person>
    <vehicle id="109_0" depart="triggered">
        <route edges="gneE49 gneE50 gneE51 -gneE46 -gneE64 -gneE60 -gneE58"/>
    </vehicle>
    <person id="109" depart="327.00">
        <ride from="gneE49" to="-gneE58" lines="109_0"/>
    </person>
    <vehicle id="110_0" depart="triggered">
        <route edges="-gneE38 -gneE37 -gneE36 -gneE35 -gneE26 gneE2 gneE18 -gneE14"/>
    </vehicle>
    <person id="110" depart="330.00">
        <ride from="-gneE38" to="-gneE14" lines="110_0"/>
    </person>
    <vehicle id="111_0" depart="triggered">
        <route edges="-gneE29 -gneE28 -gneE10 gneE19 gneE14 gneE32"/>
    </vehicle>
    <person id="111" depart="333.00">
        <ride from="-gneE29" to="gneE32" lines="111_0"/>
    </person>
    <vehicle id="112_0" depart="triggered">
        <route edges="-gneE76 -gneE73 -gneE69 -gneE31 gneE29 gneE50"/>
    </vehicle>
    <person id="112" depart="336.00">
        <ride from="-gneE76" to="gneE50" lines="112_0"/>
    </person>
    <vehicle id="113_0" depart="triggered">
        <route edges="-gneE18 gneE5 gneE9 gneE10 gneE11 gneE0"/>
    </vehicle>
    <person id="113" depart="339.00">
        <ride from="-gneE18" to="gneE0" lines="113_0"/>
    </person>
    <vehicle id="114_0" depart="triggered">
        <route edges="-gneE21 gneE4 gneE26"/>
    </vehicle>
    <person id="114" depart="342.00">
        <ride from="-gneE21" to="gneE26" lines="114_0"/>
    </person>
    <vehicle id="115_0" depart="triggered">
        <route edges="-gneE45 -gneE43 gneE38 gneE39 -gneE0 -gneE30 -gneE29 gneE31 gneE69 gneE72 -gneE75 -gneE74"/>
    </vehicle>
    <person id="115" depart="345.00">
        <ride from="-gneE45" to="-gneE74" lines="115_0"/>
    </person>
    <vehicle id="116_0" depart="triggered">
        <route edges="-gneE15 gneE16 gneE17 -gneE3 gneE18 gneE15"/>
    </vehicle>
    <person id="116" depart="348.00">
        <ride from="-gneE15" to="gneE15" lines="116_0"/>
    </person>
    <vehicle id="117_0" depart="triggered">
        <route edges="-gneE21 -gneE3 gneE5 gneE7 gneE8 -gneE39 -gneE56 -gneE54 gneE46 gneE47"/>
    </vehicle>
    <person id="117" depart="351.00">
        <ride from="-gneE21" to="gneE47" lines="117_0"/>
    </person>
    <vehicle id="118_0" depart="triggered">
        <route edges="-gneE19 gneE10 gneE28 gneE29 gneE50 gneE52 gneE53 gneE57"/>
    </vehicle>
    <person id="118" depart="354.00">
        <ride from="-gneE19" to="gneE57" lines="118_0"/>
    </person>
    <person id="119" depart="357.00">
        <walk edges="-gneE16 -gneE17 -gneE4 gneE26 gneE34 -gneE34"/>
    </person>
    <person id="120" depart="360.00">
        <walk edges="gneE33 -gneE14.46 -gneE13"/>
    </person>
    <vehicle id="121_0" depart="triggered">
        <route edges="-gneE1 -gneE0 -gneE11 gneE28 gneE29"/>
    </vehicle>
    <person id="121" depart="363.00">
        <ride from="-gneE1" to="gneE29" lines="121_0"/>
    </person>
    <person id="122" depart="366.00">
        <walk edges="gneE5 gneE7 -gneE8 gneE39 gneE56 gneE54 gneE64 -gneE61 -gneE62"/>
    </person>
    <person id="123" depart="369.00">
        <walk edges="gneE63 -gneE61 -gneE60 -gneE58 gneE48 gneE77 gneE79 -gneE79"/>
    </person>
    <vehicle id="124_0" depart="triggered">
        <route edges="gneE75 -gneE72 -gneE69 -gneE31 gneE29 gneE50 gneE51 -gneE46 gneE54"/>
    </vehicle>
    <person id="124" depart="372.00">
        <ride from="gneE75" to="gneE54" lines="124_0"/>
    </person>
    <person id="125" depart="375.00">
        <walk edges="gneE72 -gneE73 -gneE76 -gneE77"/>
    </person>
    <person id="126" depart="378.00">
        <walk edges="gneE13 gneE12 -gneE11 -gneE0 gneE39 gneE38 -gneE43 -gneE65"/>
    </person>
    <vehicle id="127_0" depart="triggered">
        <route edges="-gneE30 -gneE29 -gneE28 -gneE10 -gneE9 -gneE5 gneE3"/>
    </vehicle>
    <person id="127" depart="381.00">
        <ride from="-gneE30" to="gneE3" lines="127_0"/>
    </person>
    <vehicle id="128_0" depart="triggered">
        <route edges="gneE19 -gneE13 -gneE12 gneE28 gneE31 gneE69 gneE73 gneE76 gneE49"/>
    </vehicle>
    <person id="128" depart="384.00">
        <ride from="gneE19" to="gneE49" lines="128_0"/>
    </person>
    <vehicle id="129_0" depart="triggered">
        <route edges="gneE76 gneE49 gneE30 gneE0 -gneE8 -gneE7 gneE9"/>
    </vehicle>
    <person id="129" depart="387.00">
        <ride from="gneE76" to="gneE9" lines="129_0"/>
    </person>
    <vehicle id="130_0" depart="triggered">
        <route edges="-gneE71 -gneE70 gneE69 gneE73 gneE76 -gneE48 gneE58 gneE60 gneE61"/>
    </vehicle>
    <person id="130" depart="390.00">
        <ride from="-gneE71" to="gneE61" lines="130_0"/>
    </person>
    <vehicle id="131_0" depart="triggered">
        <route edges="-gneE53 -gneE52 -gneE50 -gneE29 -gneE28 -gneE10 -gneE9 -gneE15"/>
    </vehicle>
    <person id="131" depart="393.00">
        <ride from="-gneE53" to="-gneE15" lines="131_0"/>
    </person>
    <person id="132" depart="396.00">
        <walk edges="gneE57 -gneE53"/>
    </person>
    <vehicle id="133_0" depart="triggered">
        <route edges="-gneE1 -gneE39 -gneE38 -gneE37 gneE66 gneE67"/>
    </vehicle>
    <person id="133" depart="399.00">
        <ride from="-gneE1" to="gneE67" lines="133_0"/>
    </person>
    <vehicle id="134_0" depart="triggered">
        <route edges="-gneE30 -gneE29 gneE31 gneE70 gneE71"/>
    </vehicle>
    <person id="134" depart="402.00">
        <ride from="-gneE30" to="gneE71" lines="134_0"/>
    </person>
    <vehicle id="135_0" depart="triggered">
        <route edges="-gneE34 gneE35 gneE36 gneE37 gneE43 gneE65"/>
    </vehicle>
    <person id="135" depart="405.00">
        <ride from="-gneE34" to="gneE65" lines="135_0"/>
    </person>
    <vehicle id="136_0" depart="triggered">
        <route edges="gneE73 gneE76 gneE49 gneE30 gneE0 -gneE39 -gneE38 gneE43"/>
    </vehicle>
    <person id="136" depart="408.00">
        <ride from="gneE73" to="gneE43" lines="136_0"/>
    </person>
    <vehicle id="137_0" depart="triggered">
        <route edges="-gneE21 -gneE3 gneE18 -gneE14 -gneE14.46 -gneE13"/>
    </vehicle>
    <person id="137" depart="411.00">
        <ride from="-gneE21" to="-gneE13" lines="137_0"/>
    </person>
    <vehicle id="138_0" depart="triggered">
        <route edges="-gneE48 -gneE47 -gneE46 -gneE64 -gneE60 -gneE58"/>
    </vehicle>
    <person id="138" depart="414.00">
        <ride from="-gneE48" to="-gneE58" lines="138_0"/>
    </person>
    <vehicle id="139_0" depart="triggered">