<?xml version="1.0" encoding="UTF-8"?>

<!-- generated on 03/03/20 13:40:06 by Eclipse SUMO netedit Version 1.5.0
<configuration xmlns:xsi="http://www.w3.org/2001/XMLSchema-instance" xsi:noNamespaceSchemaLocation="http://sumo.dlr.de/xsd/netconvertConfiguration.xsd">

    <input>
        <sumo-net-file value="C:\MyThings\Programming\uni\traffic-modelling\helloo_net\helloo.net.xml"/>
    </input>

    <output>
        <output-file value="C:\MyThings\Programming\uni\traffic-modelling\helloo_net\helloo.net.xml"/>
    </output>

    <processing>
        <geometry.min-radius.fix.railways value="false"/>
        <geometry.max-grade.fix value="false"/>
        <offset.disable-normalization value="true"/>
        <lefthand value="false"/>
    </processing>

    <junctions>
        <no-turnarounds value="true"/>
        <junctions.corner-detail value="5"/>
        <junctions.limit-turn-speed value="5.5"/>
        <rectangular-lane-cut value="false"/>
    </junctions>

    <pedestrian>
        <walkingareas value="false"/>
    </pedestrian>

    <report>
        <aggregate-warnings value="5"/>
    </report>

</configuration>
-->

<net version="1.3" junctionCornerDetail="5" limitTurnSpeed="5.50" xmlns:xsi="http://www.w3.org/2001/XMLSchema-instance" xsi:noNamespaceSchemaLocation="http://sumo.dlr.de/xsd/net_file.xsd">

    <location netOffset="0.00,0.00" convBoundary="-209.13,-106.52,241.32,223.84" origBoundary="-10000000000.00,-10000000000.00,10000000000.00,10000000000.00" projParameter="!"/>

    <edge id=":gneJ0_0" function="internal">
        <lane id=":gneJ0_0_0" index="0" speed="7.65" length="8.61" shape="-25.62,48.04 -26.63,46.18 -28.08,44.80 -29.98,43.89 -32.34,43.46"/>
    </edge>
    <edge id=":gneJ0_1" function="internal">
        <lane id=":gneJ0_1_0" index="0" speed="13.89" length="12.33" shape="-25.62,48.04 -26.61,44.86 -26.99,42.06 -26.83,39.23 -26.20,35.95"/>
    </edge>
    <edge id=":gneJ0_2" function="internal">
        <lane id=":gneJ0_2_0" index="0" speed="13.55" length="10.51" shape="-23.08,36.67 -23.73,39.67 -23.93,41.86 -23.59,44.03 -22.62,46.92"/>
    </edge>
    <edge id=":gneJ0_3" function="internal">
        <lane id=":gneJ0_3_0" index="0" speed="8.04" length="4.96" shape="-23.08,36.67 -24.30,39.86 -25.33,41.01"/>
    </edge>
    <edge id=":gneJ0_6" function="internal">
        <lane id=":gneJ0_6_0" index="0" speed="8.04" length="7.74" shape="-25.33,41.01 -26.25,42.05 -28.93,43.25 -32.34,43.46"/>
    </edge>
    <edge id=":gneJ0_4" function="internal">
        <lane id=":gneJ0_4_0" index="0" speed="6.54" length="8.08" shape="-32.09,40.27 -29.92,40.14 -28.22,39.37 -26.98,37.98 -26.20,35.95"/>
    </edge>
    <edge id=":gneJ0_5" function="internal">
        <lane id=":gneJ0_5_0" index="0" speed="9.03" length="12.27" shape="-32.09,40.27 -28.80,40.89 -26.13,42.21 -24.07,44.22 -22.62,46.92"/>
    </edge>
    <edge id=":gneJ1_0" function="internal">
        <lane id=":gneJ1_0_0" index="0" speed="9.11" length="12.60" shape="6.42,96.76 2.36,96.62 -0.91,97.15 -3.38,98.33 -5.05,100.17"/>
    </edge>
    <edge id=":gneJ1_1" function="internal">
        <lane id=":gneJ1_1_0" index="0" speed="9.83" length="14.78" shape="6.42,96.76 0.87,96.39 -3.35,96.56 -6.24,97.28 -7.81,98.54"/>
    </edge>
    <edge id=":gneJ1_2" function="internal">
        <lane id=":gneJ1_2_0" index="0" speed="13.17" length="26.07" shape="6.42,96.76 -0.21,95.25 -5.67,92.24 -9.96,87.71 -13.08,81.67"/>
    </edge>
    <edge id=":gneJ1_3" function="internal">
        <lane id=":gneJ1_3_0" index="0" speed="8.14" length="12.17" shape="6.42,96.76 -0.15,95.30 -3.57,92.60 -3.64,91.52"/>
    </edge>
    <edge id=":gneJ1_15" function="internal">
        <lane id=":gneJ1_15_0" index="0" speed="8.14" length="8.78" shape="-3.64,91.52 -3.83,88.67 -0.94,83.51"/>
    </edge>
    <edge id=":gneJ1_4" function="internal">
        <lane id=":gneJ1_4_0" index="0" speed="5.64" length="9.28" shape="4.12,87.43 2.71,89.85 2.68,91.68 4.02,92.93 6.75,93.58"/>
    </edge>
    <edge id=":gneJ1_5" function="internal">
        <lane id=":gneJ1_5_0" index="0" speed="13.89" length="15.92" shape="4.12,87.43 1.22,91.09 -0.78,93.59 -2.62,96.19 -5.05,100.17"/>
        <lane id=":gneJ1_5_1" index="1" speed="13.89" length="15.92" shape="1.59,85.47 -1.38,89.22 -3.43,91.79 -5.31,94.47 -7.81,98.54"/>
    </edge>
    <edge id=":gneJ1_7" function="internal">
        <lane id=":gneJ1_7_0" index="0" speed="8.14" length="7.13" shape="1.59,85.47 -2.68,89.56 -3.87,89.79"/>
    </edge>
    <edge id=":gneJ1_16" function="internal">
        <lane id=":gneJ1_16_0" index="0" speed="8.14" length="13.81" shape="-3.87,89.79 -6.55,90.30 -10.02,87.66 -13.08,81.67"/>
    </edge>
    <edge id=":gneJ1_8" function="internal">
        <lane id=":gneJ1_8_0" index="0" speed="5.64" length="9.28" shape="-10.08,80.55 -8.77,83.03 -7.23,84.02 -5.46,83.53 -3.47,81.55"/>
    </edge>
    <edge id=":gneJ1_9" function="internal">
        <lane id=":gneJ1_9_0" index="0" speed="6.59" length="13.20" shape="-10.08,80.55 -8.12,84.47 -5.94,86.27 -3.54,85.95 -0.94,83.51"/>
    </edge>
    <edge id=":gneJ1_10" function="internal">
        <lane id=":gneJ1_10_0" index="0" speed="12.26" length="22.51" shape="-10.08,80.55 -7.39,85.76 -3.69,89.67 1.03,92.28 6.75,93.58"/>
    </edge>
    <edge id=":gneJ1_11" function="internal">
        <lane id=":gneJ1_11_0" index="0" speed="12.93" length="7.36" shape="-10.08,80.55 -8.07,86.69 -7.89,87.57"/>
    </edge>
    <edge id=":gneJ1_17" function="internal">
        <lane id=":gneJ1_17_0" index="0" speed="12.93" length="11.19" shape="-7.89,87.57 -7.02,91.74 -6.93,95.69 -7.81,98.54"/>
    </edge>
    <edge id=":gneJ1_12" function="internal">
        <lane id=":gneJ1_12_0" index="0" speed="11.31" length="14.09" shape="-13.33,95.30 -12.09,92.37 -11.64,89.12 -11.97,85.55 -13.08,81.67"/>
    </edge>
    <edge id=":gneJ1_13" function="internal">
        <lane id=":gneJ1_13_0" index="0" speed="13.89" length="16.54" shape="-10.57,96.92 -8.01,92.74 -6.08,89.99 -3.99,87.36 -0.94,83.51"/>
    </edge>
    <edge id=":gneJ1_14" function="internal">
        <lane id=":gneJ1_14_0" index="0" speed="10.91" length="4.25" shape="-10.57,96.92 -8.42,94.89 -7.19,94.48"/>
    </edge>
    <edge id=":gneJ1_18" function="internal">
        <lane id=":gneJ1_18_0" index="0" speed="10.91" length="14.11" shape="-7.19,94.48 -4.81,93.66 0.24,93.22 6.75,93.58"/>
    </edge>
    <edge id=":gneJ10_0" function="internal">
        <lane id=":gneJ10_0_0" index="0" speed="9.55" length="14.98" shape="69.81,-86.03 67.24,-86.22 64.32,-85.09 61.08,-82.64 57.49,-78.85"/>
    </edge>
    <edge id=":gneJ10_1" function="internal">
        <lane id=":gneJ10_1_0" index="0" speed="13.89" length="19.99" shape="69.81,-86.03 65.44,-87.14 60.04,-87.98 54.60,-88.57 50.07,-88.92"/>
    </edge>
    <edge id=":gneJ10_2" function="internal">
        <lane id=":gneJ10_2_0" index="0" speed="13.89" length="20.88" shape="50.27,-92.11 54.93,-91.74 60.68,-91.09 66.38,-90.18 70.88,-89.04"/>
    </edge>
    <edge id=":gneJ10_3" function="internal">
        <lane id=":gneJ10_3_0" index="0" speed="8.14" length="21.91" shape="50.27,-92.11 57.28,-90.87 60.82,-88.25 60.89,-84.24 57.49,-78.85"/>
    </edge>
    <edge id=":gneJ10_4" function="internal">
        <lane id=":gneJ10_4_0" index="0" speed="6.54" length="13.60" shape="55.05,-80.92 57.05,-84.16 56.89,-86.57 54.56,-88.16 50.07,-88.92"/>
    </edge>
    <edge id=":gneJ10_5" function="internal">
        <lane id=":gneJ10_5_0" index="0" speed="10.65" length="18.83" shape="55.05,-80.92 59.39,-85.39 63.47,-88.24 67.31,-89.46 70.88,-89.04"/>
    </edge>
    <edge id=":gneJ11_0" function="internal">
        <lane id=":gneJ11_0_0" index="0" speed="7.45" length="11.61" shape="148.26,-25.90 145.77,-26.01 143.60,-24.93 141.77,-22.66 140.27,-19.20"/>
    </edge>
    <edge id=":gneJ11_1" function="internal">
        <lane id=":gneJ11_1_0" index="0" speed="13.89" length="15.78" shape="148.26,-25.90 144.46,-26.48 140.46,-26.41 136.46,-25.84 132.67,-24.93"/>
    </edge>
    <edge id=":gneJ11_2" function="internal">
        <lane id=":gneJ11_2_0" index="0" speed="13.32" length="15.66" shape="148.26,-25.90 144.71,-27.33 141.41,-29.53 138.52,-32.30 136.21,-35.40"/>
    </edge>
    <edge id=":gneJ11_3" function="internal">
        <lane id=":gneJ11_3_0" index="0" speed="12.32" length="13.33" shape="138.93,-37.08 140.95,-34.20 143.18,-31.92 145.82,-30.20 149.08,-29.00"/>
    </edge>
    <edge id=":gneJ11_4" function="internal">
        <lane id=":gneJ11_4_0" index="0" speed="13.10" length="18.51" shape="138.93,-37.08 140.78,-33.10 141.62,-28.79 141.45,-24.16 140.27,-19.20"/>
    </edge>
    <edge id=":gneJ11_5" function="internal">
        <lane id=":gneJ11_5_0" index="0" speed="7.91" length="16.74" shape="138.93,-37.08 140.58,-33.02 140.08,-29.64 137.45,-26.95 132.67,-24.93"/>
    </edge>
    <edge id=":gneJ11_6" function="internal">
        <lane id=":gneJ11_6_0" index="0" speed="6.39" length="10.49" shape="131.79,-28.01 134.93,-29.29 136.71,-30.95 137.14,-32.98 136.21,-35.40"/>
    </edge>
    <edge id=":gneJ11_7" function="internal">
        <lane id=":gneJ11_7_0" index="0" speed="13.89" length="17.47" shape="131.79,-28.01 135.84,-28.92 140.43,-29.50 145.02,-29.57 149.08,-29.00"/>
    </edge>
    <edge id=":gneJ11_8" function="internal">
        <lane id=":gneJ11_8_0" index="0" speed="7.38" length="17.37" shape="131.79,-28.01 137.03,-28.81 140.19,-27.61 141.27,-24.40 140.27,-19.20"/>
    </edge>
    <edge id=":gneJ11_9" function="internal">
        <lane id=":gneJ11_9_0" index="0" speed="5.60" length="9.33" shape="137.23,-20.20 137.77,-22.99 137.19,-24.72 135.49,-25.36 132.67,-24.93"/>
    </edge>
    <edge id=":gneJ11_10" function="internal">
        <lane id=":gneJ11_10_0" index="0" speed="12.10" length="15.72" shape="137.23,-20.20 138.26,-24.46 138.43,-28.41 137.75,-32.06 136.21,-35.40"/>
    </edge>
    <edge id=":gneJ11_11" function="internal">
        <lane id=":gneJ11_11_0" index="0" speed="8.78" length="16.52" shape="137.23,-20.20 139.32,-24.86 142.00,-27.88 145.25,-29.26 149.08,-29.00"/>
    </edge>
    <edge id=":gneJ12_0" function="internal">
        <lane id=":gneJ12_0_0" index="0" speed="13.89" length="13.70" shape="212.19,-15.44 209.92,-12.71 208.00,-10.03 206.23,-7.23 204.46,-4.16"/>
    </edge>
    <edge id=":gneJ12_1" function="internal">
        <lane id=":gneJ12_1_0" index="0" speed="9.95" length="5.14" shape="212.19,-15.44 209.62,-13.31 207.94,-12.66"/>
    </edge>
    <edge id=":gneJ12_6" function="internal">
        <lane id=":gneJ12_6_0" index="0" speed="9.95" length="9.34" shape="207.94,-12.66 206.53,-12.12 202.91,-11.87 198.77,-12.56"/>
    </edge>
    <edge id=":gneJ12_2" function="internal">
        <lane id=":gneJ12_2_0" index="0" speed="8.71" length="10.94" shape="199.58,-15.65 202.81,-15.09 205.59,-15.22 207.91,-16.04 209.79,-17.56"/>
    </edge>
    <edge id=":gneJ12_3" function="internal">
        <lane id=":gneJ12_3_0" index="0" speed="7.63" length="15.25" shape="199.58,-15.65 203.58,-13.96 205.73,-11.48 206.02,-8.21 204.46,-4.16"/>
    </edge>
    <edge id=":gneJ12_4" function="internal">
        <lane id=":gneJ12_4_0" index="0" speed="6.03" length="9.07" shape="201.67,-5.72 202.60,-8.13 202.42,-10.07 201.15,-11.55 198.77,-12.56"/>
    </edge>
    <edge id=":gneJ12_5" function="internal">
        <lane id=":gneJ12_5_0" index="0" speed="13.89" length="14.39" shape="201.67,-5.72 203.50,-8.88 205.40,-11.87 207.47,-14.75 209.79,-17.56"/>
    </edge>
    <edge id=":gneJ14_0" function="internal">
        <lane id=":gneJ14_0_0" index="0" speed="9.40" length="8.75" shape="207.13,63.84 205.26,64.68 203.61,65.94 202.20,67.62 201.01,69.74"/>
    </edge>
    <edge id=":gneJ14_1" function="internal">
        <lane id=":gneJ14_1_0" index="0" speed="9.82" length="3.98" shape="207.13,63.84 204.42,64.34 203.20,64.24"/>
    </edge>
    <edge id=":gneJ14_6" function="internal">
        <lane id=":gneJ14_6_0" index="0" speed="9.82" length="7.45" shape="203.20,64.24 201.72,64.12 199.04,63.20 196.37,61.56"/>
    </edge>
    <edge id=":gneJ14_2" function="internal">
        <lane id=":gneJ14_2_0" index="0" speed="8.49" length="8.40" shape="198.29,59.00 200.29,60.23 202.27,60.95 204.23,61.13 206.18,60.79"/>
    </edge>
    <edge id=":gneJ14_3" function="internal">
        <lane id=":gneJ14_3_0" index="0" speed="8.07" length="12.13" shape="198.29,59.00 200.60,61.27 201.82,63.82 201.96,66.64 201.01,69.74"/>
    </edge>
    <edge id=":gneJ14_4" function="internal">
        <lane id=":gneJ14_4_0" index="0" speed="6.56" length="7.72" shape="198.10,68.39 198.71,66.42 198.62,64.63 197.84,63.01 196.37,61.56"/>
    </edge>
    <edge id=":gneJ14_5" function="internal">
        <lane id=":gneJ14_5_0" index="0" speed="10.68" length="11.42" shape="198.10,68.39 199.64,65.69 201.49,63.52 203.67,61.89 206.18,60.79"/>
    </edge>
    <edge id=":gneJ19_0" function="internal">
        <lane id=":gneJ19_0_0" index="0" speed="8.55" length="7.74" shape="129.98,148.96 127.90,148.87 126.01,149.18 124.31,149.90 122.79,151.02"/>
    </edge>
    <edge id=":gneJ19_1" function="internal">
        <lane id=":gneJ19_1_0" index="0" speed="8.14" length="4.11" shape="129.98,148.96 127.18,148.21 126.16,147.55"/>
    </edge>
    <edge id=":gneJ19_6" function="internal">
        <lane id=":gneJ19_6_0" index="0" speed="8.14" length="6.88" shape="126.16,147.55 125.00,146.79 123.45,144.71 122.52,141.96"/>
    </edge>
    <edge id=":gneJ19_2" function="internal">
        <lane id=":gneJ19_2_0" index="0" speed="6.61" length="7.00" shape="125.66,141.33 126.25,143.08 127.24,144.41 128.62,145.31 130.41,145.79"/>
    </edge>
    <edge id=":gneJ19_3" function="internal">
        <lane id=":gneJ19_3_0" index="0" speed="9.01" length="10.58" shape="125.66,141.33 125.92,144.16 125.53,146.72 124.49,149.00 122.79,151.02"/>
    </edge>
    <edge id=":gneJ19_4" function="internal">
        <lane id=":gneJ19_4_0" index="0" speed="7.58" length="7.31" shape="120.61,148.68 121.76,147.30 122.46,145.72 122.71,143.94 122.52,141.96"/>
    </edge>
    <edge id=":gneJ19_5" function="internal">
        <lane id=":gneJ19_5_0" index="0" speed="9.90" length="10.56" shape="120.61,148.68 122.70,147.12 125.04,146.12 127.60,145.67 130.41,145.79"/>
    </edge>
    <edge id=":gneJ2_0" function="internal">
        <lane id=":gneJ2_0_0" index="0" speed="7.62" length="9.83" shape="116.76,113.20 115.93,110.94 114.48,109.23 112.39,108.08 109.66,107.49"/>
    </edge>
    <edge id=":gneJ2_1" function="internal">
        <lane id=":gneJ2_1_0" index="0" speed="13.89" length="23.71" shape="116.76,113.20 116.29,108.13 116.25,101.39 116.46,94.64 116.76,89.52"/>
    </edge>
    <edge id=":gneJ2_2" function="internal">
        <lane id=":gneJ2_2_0" index="0" speed="13.89" length="6.06" shape="116.76,113.20 116.95,109.25 117.76,107.30"/>
    </edge>
    <edge id=":gneJ2_12" function="internal">
        <lane id=":gneJ2_12_0" index="0" speed="13.89" length="18.48" shape="117.76,107.30 118.95,104.45 122.75,98.79 128.34,92.29"/>
    </edge>
    <edge id=":gneJ2_3" function="internal">
        <lane id=":gneJ2_3_0" index="0" speed="13.29" length="21.55" shape="130.68,94.47 125.55,100.36 122.05,105.33 120.16,109.40 119.90,112.57"/>
    </edge>
    <edge id=":gneJ2_4" function="internal">
        <lane id=":gneJ2_4_0" index="0" speed="13.89" length="25.40" shape="130.68,94.47 124.50,100.48 118.94,104.65 113.99,106.99 109.66,107.49"/>
    </edge>
    <edge id=":gneJ2_5" function="internal">
        <lane id=":gneJ2_5_0" index="0" speed="7.33" length="6.06" shape="130.68,94.47 126.05,97.38 125.45,97.37"/>
    </edge>
    <edge id=":gneJ2_13" function="internal">
        <lane id=":gneJ2_13_0" index="0" speed="7.33" length="13.69" shape="125.45,97.37 121.38,97.31 117.89,94.59 116.76,89.52"/>
    </edge>
    <edge id=":gneJ2_6" function="internal">
        <lane id=":gneJ2_6_0" index="0" speed="5.46" length="10.15" shape="123.14,90.00 123.23,93.34 124.12,94.83 125.83,94.48 128.34,92.29"/>
    </edge>
    <edge id=":gneJ2_7" function="internal">
        <lane id=":gneJ2_7_0" index="0" speed="13.89" length="22.86" shape="119.95,89.76 119.49,96.84 119.28,103.07 119.39,108.34 119.90,112.57"/>
    </edge>
    <edge id=":gneJ2_8" function="internal">
        <lane id=":gneJ2_8_0" index="0" speed="9.88" length="10.75" shape="119.95,89.76 118.78,97.86 117.89,100.27"/>
    </edge>
    <edge id=":gneJ2_14" function="internal">
        <lane id=":gneJ2_14_0" index="0" speed="9.88" length="11.93" shape="117.89,100.27 116.68,103.52 113.64,106.73 109.66,107.49"/>
    </edge>
    <edge id=":gneJ2_9" function="internal">
        <lane id=":gneJ2_9_0" index="0" speed="8.76" length="17.61" shape="109.99,104.30 112.52,103.60 114.49,100.90 115.90,96.21 116.76,89.52"/>
    </edge>
    <edge id=":gneJ2_10" function="internal">
        <lane id=":gneJ2_10_0" index="0" speed="13.85" length="22.48" shape="109.99,104.30 113.56,103.81 117.81,101.64 122.74,97.80 128.34,92.29"/>
    </edge>
    <edge id=":gneJ2_11" function="internal">
        <lane id=":gneJ2_11_0" index="0" speed="8.96" length="4.06" shape="109.99,104.30 113.77,105.15 113.94,105.24"/>
    </edge>
    <edge id=":gneJ2_15" function="internal">
        <lane id=":gneJ2_15_0" index="0" speed="8.96" length="9.86" shape="113.94,105.24 116.68,106.81 118.72,109.28 119.90,112.57"/>
    </edge>
    <edge id=":gneJ21_0" function="internal">
        <lane id=":gneJ21_0_0" index="0" speed="6.55" length="7.90" shape="-78.85,-8.97 -80.92,-8.54 -82.47,-7.56 -83.51,-6.05 -84.02,-3.99"/>
    </edge>
    <edge id=":gneJ21_1" function="internal">
        <lane id=":gneJ21_1_0" index="0" speed="10.19" length="16.25" shape="-78.85,-8.97 -82.25,-9.37 -85.42,-11.06 -88.35,-14.04 -91.04,-18.32"/>
    </edge>
    <edge id=":gneJ21_2" function="internal">
        <lane id=":gneJ21_2_0" index="0" speed="9.01" length="12.54" shape="-88.20,-19.80 -86.07,-16.33 -83.83,-13.90 -81.50,-12.51 -79.08,-12.16"/>
    </edge>
    <edge id=":gneJ21_3" function="internal">
        <lane id=":gneJ21_3_0" index="0" speed="13.89" length="16.55" shape="-88.20,-19.80 -86.50,-16.16 -85.04,-12.10 -84.12,-7.94 -84.02,-3.99"/>
    </edge>
    <edge id=":gneJ21_4" function="internal">
        <lane id=":gneJ21_4_0" index="0" speed="13.89" length="13.92" shape="-90.38,-4.68 -89.85,-9.05 -89.57,-12.39 -89.86,-15.28 -91.04,-18.32"/>
    </edge>
    <edge id=":gneJ21_5" function="internal">
        <lane id=":gneJ21_5_0" index="0" speed="8.05" length="4.29" shape="-87.20,-4.34 -86.39,-7.56 -85.85,-8.36"/>
    </edge>
    <edge id=":gneJ21_6" function="internal">
        <lane id=":gneJ21_6_0" index="0" speed="8.05" length="8.12" shape="-85.85,-8.36 -84.77,-9.95 -82.33,-11.48 -79.08,-12.16"/>
    </edge>
    <edge id=":gneJ22_0" function="internal">
        <lane id=":gneJ22_0_0" index="0" speed="8.66" length="11.58" shape="-91.03,47.73 -92.48,45.28 -94.51,43.51 -97.12,42.43 -100.31,42.04"/>
    </edge>
    <edge id=":gneJ22_1" function="internal">
        <lane id=":gneJ22_1_0" index="0" speed="9.89" length="15.33" shape="-88.07,46.50 -90.01,43.20 -92.68,40.82 -96.10,39.36 -100.27,38.84"/>
    </edge>
    <edge id=":gneJ22_2" function="internal">
        <lane id=":gneJ22_2_0" index="0" speed="13.89" length="17.12" shape="-88.07,46.50 -90.00,41.82 -91.04,38.45 -91.31,34.97 -90.92,29.95"/>
    </edge>
    <edge id=":gneJ22_3" function="internal">
        <lane id=":gneJ22_3_0" index="0" speed="7.43" length="7.55" shape="-88.07,46.50 -89.32,41.78 -88.68,39.20"/>
    </edge>
    <edge id=":gneJ22_14" function="internal">
        <lane id=":gneJ22_14_0" index="0" speed="7.43" length="8.89" shape="-88.68,39.20 -88.52,38.54 -85.68,36.78 -80.81,36.50"/>
    </edge>
    <edge id=":gneJ22_4" function="internal">
        <lane id=":gneJ22_4_0" index="0" speed="5.73" length="9.19" shape="-81.06,39.69 -83.78,39.84 -85.37,40.83 -85.81,42.64 -85.12,45.28"/>
    </edge>
    <edge id=":gneJ22_5" function="internal">
        <lane id=":gneJ22_5_0" index="0" speed="13.89" length="19.23" shape="-81.06,39.69 -100.27,38.84"/>
    </edge>
    <edge id=":gneJ22_6" function="internal">
        <lane id=":gneJ22_6_0" index="0" speed="8.34" length="6.62" shape="-81.06,39.69 -85.74,38.76 -87.32,37.81"/>
    </edge>
    <edge id=":gneJ22_15" function="internal">
        <lane id=":gneJ22_15_0" index="0" speed="8.34" length="9.26" shape="-87.32,37.81 -88.94,36.83 -90.67,33.89 -90.92,29.95"/>
    </edge>
    <edge id=":gneJ22_7" function="internal">
        <lane id=":gneJ22_7_0" index="0" speed="6.92" length="10.61" shape="-87.74,30.29 -87.54,32.79 -86.31,34.65 -84.07,35.89 -80.81,36.50"/>
    </edge>
    <edge id=":gneJ22_8" function="internal">
        <lane id=":gneJ22_8_0" index="0" speed="13.89" length="15.36" shape="-87.74,30.29 -87.83,34.08 -87.35,37.92 -86.41,41.69 -85.12,45.28"/>
    </edge>
    <edge id=":gneJ22_9" function="internal">
        <lane id=":gneJ22_9_0" index="0" speed="8.99" length="5.19" shape="-87.74,30.29 -88.88,34.09 -89.70,34.99"/>
    </edge>
    <edge id=":gneJ22_16" function="internal">
        <lane id=":gneJ22_16_0" index="0" speed="8.99" length="11.69" shape="-89.70,34.99 -91.35,36.78 -95.14,38.36 -100.27,38.84"/>
    </edge>
    <edge id=":gneJ22_10" function="internal">
        <lane id=":gneJ22_10_0" index="0" speed="6.92" length="9.60" shape="-100.22,35.64 -97.79,35.29 -95.97,34.17 -94.74,32.27 -94.10,29.60"/>
    </edge>
    <edge id=":gneJ22_11" function="internal">
        <lane id=":gneJ22_11_0" index="0" speed="7.69" length="12.08" shape="-100.22,35.64 -96.39,35.33 -93.56,34.28 -91.74,32.48 -90.92,29.95"/>
    </edge>
    <edge id=":gneJ22_12" function="internal">
        <lane id=":gneJ22_12_0" index="0" speed="13.89" length="19.43" shape="-100.22,35.64 -80.81,36.50"/>
    </edge>
    <edge id=":gneJ22_13" function="internal">
        <lane id=":gneJ22_13_0" index="0" speed="10.98" length="8.45" shape="-100.22,35.64 -95.09,36.30 -92.08,37.60"/>
    </edge>
    <edge id=":gneJ22_17" function="internal">
        <lane id=":gneJ22_17_0" index="0" speed="10.98" length="10.62" shape="-92.08,37.60 -90.86,38.13 -87.53,41.12 -85.12,45.28"/>
    </edge>
    <edge id=":gneJ23_0" function="internal">
        <lane id=":gneJ23_0_0" index="0" speed="7.15" length="9.91" shape="-96.39,-28.56 -98.01,-30.95 -99.89,-32.40 -102.04,-32.91 -104.45,-32.48"/>
    </edge>
    <edge id=":gneJ23_1" function="internal">
        <lane id=":gneJ23_1_0" index="0" speed="7.72" length="14.91" shape="-96.39,-28.56 -97.78,-32.52 -97.44,-35.76 -95.38,-38.29 -91.60,-40.11"/>
    </edge>
    <edge id=":gneJ23_2" function="internal">
        <lane id=":gneJ23_2_0" index="0" speed="6.16" length="9.05" shape="-90.64,-37.05 -92.94,-35.95 -94.19,-34.42 -94.39,-32.45 -93.55,-30.04"/>
    </edge>
    <edge id=":gneJ23_3" function="internal">
        <lane id=":gneJ23_3_0" index="0" speed="13.89" length="14.54" shape="-90.64,-37.05 -104.45,-32.48"/>
    </edge>
    <edge id=":gneJ23_4" function="internal">
        <lane id=":gneJ23_4_0" index="0" speed="13.89" length="14.65" shape="-105.51,-35.50 -91.60,-40.11"/>
    </edge>
    <edge id=":gneJ23_5" function="internal">
        <lane id=":gneJ23_5_0" index="0" speed="8.55" length="5.87" shape="-105.51,-35.50 -101.88,-36.18 -99.75,-35.72"/>
    </edge>
    <edge id=":gneJ23_6" function="internal">
        <lane id=":gneJ23_6_0" index="0" speed="8.55" length="8.69" shape="-99.75,-35.72 -98.67,-35.49 -95.90,-33.45 -93.55,-30.04"/>
    </edge>
    <edge id=":gneJ24_0" function="internal">
        <lane id=":gneJ24_0_0" index="0" speed="6.71" length="10.66" shape="118.60,-63.93 116.88,-65.79 114.79,-66.41 112.32,-65.79 109.48,-63.93"/>
    </edge>
    <edge id=":gneJ24_1" function="internal">
        <lane id=":gneJ24_1_0" index="0" speed="13.89" length="15.55" shape="118.60,-63.93 116.23,-66.91 113.23,-69.45 109.84,-71.50 106.30,-73.03"/>
    </edge>
    <edge id=":gneJ24_2" function="internal">
        <lane id=":gneJ24_2_0" index="0" speed="8.54" length="4.70" shape="118.60,-63.93 116.91,-67.62 116.85,-68.26"/>
    </edge>
    <edge id=":gneJ24_12" function="internal">
        <lane id=":gneJ24_12_0" index="0" speed="8.54" length="9.70" shape="116.85,-68.26 116.58,-71.01 117.62,-74.10 120.02,-76.89"/>
    </edge>
    <edge id=":gneJ24_3" function="internal">
        <lane id=":gneJ24_3_0" index="0" speed="7.15" length="9.80" shape="122.10,-74.46 120.52,-72.59 119.87,-70.50 120.13,-68.17 121.32,-65.61"/>
    </edge>
    <edge id=":gneJ24_4" function="internal">
        <lane id=":gneJ24_4_0" index="0" speed="13.89" length="16.43" shape="122.10,-74.46 109.48,-63.93"/>
    </edge>
    <edge id=":gneJ24_5" function="internal">
        <lane id=":gneJ24_5_0" index="0" speed="10.97" length="6.15" shape="122.10,-74.46 118.93,-72.50 116.57,-71.93"/>
    </edge>
    <edge id=":gneJ24_13" function="internal">
        <lane id=":gneJ24_13_0" index="0" speed="10.97" length="10.48" shape="116.57,-71.93 115.24,-71.61 111.03,-71.78 106.30,-73.03"/>
    </edge>
    <edge id=":gneJ24_6" function="internal">
        <lane id=":gneJ24_6_0" index="0" speed="9.85" length="13.27" shape="107.38,-76.04 111.25,-74.99 114.65,-74.79 117.57,-75.42 120.02,-76.89"/>
    </edge>
    <edge id=":gneJ24_7" function="internal">
        <lane id=":gneJ24_7_0" index="0" speed="13.89" length="17.65" shape="107.38,-76.04 111.17,-74.30 115.13,-71.79 118.70,-68.80 121.32,-65.61"/>
    </edge>
    <edge id=":gneJ24_8" function="internal">
        <lane id=":gneJ24_8_0" index="0" speed="7.40" length="8.34" shape="107.38,-76.04 111.92,-73.71 113.71,-71.02"/>
    </edge>
    <edge id=":gneJ24_14" function="internal">
        <lane id=":gneJ24_14_0" index="0" speed="7.40" length="8.60" shape="113.71,-71.02 113.79,-70.92 112.97,-67.65 109.48,-63.93"/>
    </edge>
    <edge id=":gneJ24_9" function="internal">
        <lane id=":gneJ24_9_0" index="0" speed="5.65" length="9.26" shape="107.45,-66.40 109.36,-68.44 109.81,-70.22 108.79,-71.75 106.30,-73.03"/>
    </edge>
    <edge id=":gneJ24_10" function="internal">
        <lane id=":gneJ24_10_0" index="0" speed="13.89" length="16.37" shape="107.45,-66.40 120.02,-76.89"/>
    </edge>
    <edge id=":gneJ24_11" function="internal">
        <lane id=":gneJ24_11_0" index="0" speed="8.16" length="7.03" shape="107.45,-66.40 111.65,-69.09 113.66,-69.50"/>
    </edge>
    <edge id=":gneJ24_15" function="internal">
        <lane id=":gneJ24_15_0" index="0" speed="8.16" length="9.28" shape="113.66,-69.50 115.36,-69.85 118.59,-68.69 121.32,-65.61"/>
    </edge>
    <edge id=":gneJ28_0" function="internal">
        <lane id=":gneJ28_0_0" index="0" speed="6.59" length="3.89" shape="99.76,172.44 98.98,173.04 98.12,173.46 97.19,173.68 96.20,173.71"/>
    </edge>
    <edge id=":gneJ28_1" function="internal">
        <lane id=":gneJ28_1_0" index="0" speed="4.17" length="1.30" shape="96.40,170.52 96.73,170.51 97.04,170.44 97.32,170.30 97.58,170.10"/>
    </edge>
    <edge id=":gneJ29_0" function="internal">
        <lane id=":gneJ29_0_0" index="0" speed="6.64" length="9.48" shape="57.50,171.32 54.79,171.50 52.81,172.43 51.55,174.11 51.02,176.54"/>
    </edge>
    <edge id=":gneJ29_1" function="internal">
        <lane id=":gneJ29_1_0" index="0" speed="13.89" length="14.83" shape="57.50,171.32 42.74,169.88"/>
    </edge>
    <edge id=":gneJ29_2" function="internal">
        <lane id=":gneJ29_2_0" index="0" speed="7.74" length="6.39" shape="57.50,171.32 53.42,170.47 51.64,169.14"/>
    </edge>
    <edge id=":gneJ29_12" function="internal">
        <lane id=":gneJ29_12_0" index="0" speed="7.74" length="8.46" shape="51.64,169.14 50.81,168.52 49.67,165.47 50.01,161.32"/>
    </edge>
    <edge id=":gneJ29_3" function="internal">
        <lane id=":gneJ29_3_0" index="0" speed="6.18" length="9.05" shape="53.13,162.03 52.92,164.56 53.62,166.42 55.21,167.61 57.70,168.13"/>
    </edge>
    <edge id=":gneJ29_4" function="internal">
        <lane id=":gneJ29_4_0" index="0" speed="13.89" length="14.68" shape="53.13,162.03 52.37,165.65 51.77,169.24 51.32,172.85 51.02,176.54"/>
    </edge>
    <edge id=":gneJ29_5" function="internal">
        <lane id=":gneJ29_5_0" index="0" speed="8.36" length="6.03" shape="53.13,162.03 51.71,165.89 50.47,167.35"/>
    </edge>
    <edge id=":gneJ29_13" function="internal">
        <lane id=":gneJ29_13_0" index="0" speed="8.36" length="8.55" shape="50.47,167.35 49.51,168.49 46.52,169.82 42.74,169.88"/>
    </edge>
    <edge id=":gneJ29_6" function="internal">
        <lane id=":gneJ29_6_0" index="0" speed="6.94" length="9.73" shape="43.17,166.71 45.64,166.65 47.60,165.74 49.06,163.96 50.01,161.32"/>
    </edge>
    <edge id=":gneJ29_7" function="internal">
        <lane id=":gneJ29_7_0" index="0" speed="13.89" length="14.59" shape="43.17,166.71 57.70,168.13"/>
    </edge>
    <edge id=":gneJ29_8" function="internal">
        <lane id=":gneJ29_8_0" index="0" speed="8.21" length="5.45" shape="43.17,166.71 46.80,167.75 48.12,168.80"/>
    </edge>
    <edge id=":gneJ29_14" function="internal">
        <lane id=":gneJ29_14_0" index="0" speed="8.21" length="8.65" shape="48.12,168.80 49.31,169.74 50.72,172.67 51.02,176.54"/>
    </edge>
    <edge id=":gneJ29_9" function="internal">
        <lane id=":gneJ29_9_0" index="0" speed="6.76" length="9.23" shape="47.83,176.35 47.64,173.80 46.72,171.87 45.09,170.56 42.74,169.88"/>
    </edge>
    <edge id=":gneJ29_10" function="internal">
        <lane id=":gneJ29_10_0" index="0" speed="13.89" length="15.20" shape="47.83,176.35 48.14,172.58 48.61,168.79 49.24,165.02 50.01,161.32"/>
    </edge>
    <edge id=":gneJ29_11" function="internal">
        <lane id=":gneJ29_11_0" index="0" speed="8.11" length="6.18" shape="47.83,176.35 48.64,172.53 49.98,170.69"/>
    </edge>
    <edge id=":gneJ29_15" function="internal">
        <lane id=":gneJ29_15_0" index="0" speed="8.11" length="8.47" shape="49.98,170.69 50.55,169.89 53.57,168.42 57.70,168.13"/>
    </edge>