<?xml version="1.0" encoding="UTF-8"?>

<!-- generated on 03/05/20 12:50:26 by Eclipse SUMO duarouter Version 1.5.0
<configuration xmlns:xsi="http://www.w3.org/2001/XMLSchema-instance" xsi:noNamespaceSchemaLocation="http://sumo.dlr.de/xsd/duarouterConfiguration.xsd">

    <input>
        <net-file value="helloo.net.xml"/>
        <additional-files value="helloo.add.xml"/>
        <route-files value="trips.trips.xml"/>
    </input>

    <output>
        <output-file value="helloo.rou.xml"/>
        <alternatives-output value="helloo.rou.alt.xml"/>
    </output>

    <time>
        <begin value="0"/>
        <end value="2000.0"/>
    </time>

    <report>
        <no-warnings value="true"/>
        <ignore-errors value="true"/>
        <no-step-log value="true"/>
    </report>

</configuration>
-->

<routes xmlns:xsi="http://www.w3.org/2001/XMLSchema-instance" xsi:noNamespaceSchemaLocation="http://sumo.dlr.de/xsd/routes_file.xsd">
    <vehicle id="1_0" depart="triggered">
        <route edges="-gneE31 gneE29 gneE30 gneE0 -gneE39 -gneE38 -gneE37"/>
    </vehicle>
    <person id="1" depart="3.00">
        <ride from="-gneE31" to="-gneE37" lines="1_0"/>
    </person>
    <person id="2" depart="6.00">
        <walk edges="gneE19 -gneE10 -gneE12 gneE12 -gneE28 -gneE31 -gneE70 -gneE71 gneE71 gneE70 -gneE69 -gneE72 gneE75 gneE74 -gneE76 -gneE77"/>
    </person>
    <vehicle id="3_0" depart="triggered">
        <route edges="-gneE77 gneE49 gneE30 gneE0 -gneE39 -gneE38 -gneE37 gneE66 gneE67"/>
    </vehicle>
    <person id="3" depart="9.00">
        <ride from="-gneE77" to="gneE67" lines="3_0"/>
    </person>
    <vehicle id="4_0" depart="triggered">
        <route edges="-gneE1 -gneE0 -gneE30 -gneE49 -gneE48"/>
    </vehicle>
    <person id="4" depart="12.00">
        <ride from="-gneE1" to="-gneE48" lines="4_0"/>
    </person>
    <vehicle id="5_0" depart="triggered">
        <route edges="gneE14.37 -gneE18 gneE3 gneE21"/>
    </vehicle>
    <person id="5" depart="15.00">
        <ride from="gneE14.37" to="gneE21" lines="5_0"/>
    </person>
    <vehicle id="6_0" depart="triggered">
        <route edges="gneE54 gneE56 -gneE38 -gneE37 gneE66 gneE68"/>
    </vehicle>
    <person id="6" depart="18.00">
        <ride from="gneE54" to="gneE68" lines="6_0"/>
    </person>
    <vehicle id="7_0" depart="triggered">
        <route edges="-gneE8 -gneE7 gneE9 gneE10 gneE11"/>
    </vehicle>
    <person id="7" depart="21.00">
        <ride from="-gneE8" to="gneE11" lines="7_0"/>
    </person>
    <vehicle id="8_0" depart="triggered">
        <route edges="gneE8 -gneE0 -gneE30 -gneE49 gneE77"/>
    </vehicle>
    <person id="8" depart="24.00">
        <ride from="gneE8" to="gneE77" lines="8_0"/>
    </person>
    <vehicle id="9_0" depart="triggered">
        <route edges="-gneE58 gneE48 gneE49 gneE30 -gneE11 -gneE10 gneE19"/>
    </vehicle>
    <person id="9" depart="27.00">
        <ride from="-gneE58" to="gneE19" lines="9_0"/>
    </person>
    <vehicle id="10_0" depart="triggered">
        <route edges="gneE18 -gneE14 -gneE14.46 -gneE13 -gneE12 -gneE10"/>
    </vehicle>
    <person id="10" depart="30.00">
        <ride from="gneE18" to="-gneE10" lines="10_0"/>
    </person>
    <vehicle id="11_0" depart="triggered">
        <route edges="-gneE25 gneE13 gneE14 gneE14.37 -gneE18 gneE3 gneE21 gneE22"/>
    </vehicle>
    <person id="11" depart="33.00">
        <ride from="-gneE25" to="gneE22" lines="11_0"/>
    </person>
    <person id="12" depart="36.00">
        <walk edges="gneE19 -gneE9 -gneE5 gneE3 gneE21 gneE22 -gneE22"/>
    </person>
    <vehicle id="13_0" depart="triggered">
        <route edges="-gneE20 gneE8 -gneE39 -gneE56 gneE55 -gneE53"/>
    </vehicle>
    <person id="13" depart="39.00">
        <ride from="-gneE20" to="-gneE53" lines="13_0"/>
    </person>
    <vehicle id="14_0" depart="triggered">
        <route edges="-gneE64 -gneE60 -gneE58 gneE48 gneE49 gneE30 -gneE11 -gneE10"/>
    </vehicle>
    <person id="14" depart="42.00">
        <ride from="-gneE64" to="-gneE10" lines="14_0"/>
    </person>
    <vehicle id="15_0" depart="triggered">
        <route edges="-gneE65 -gneE43 gneE38 gneE39 -gneE0 -gneE30 gneE50"/>
    </vehicle>
    <person id="15" depart="45.00">
        <ride from="-gneE65" to="gneE50" lines="15_0"/>
    </person>
    <vehicle id="16_0" depart="triggered">
        <route edges="-gneE72 -gneE69 -gneE31 -gneE28 -gneE10 gneE19 gneE14 gneE14.37 gneE16 gneE17"/>
    </vehicle>
    <person id="16" depart="48.00">
        <ride from="-gneE72" to="gneE17" lines="16_0"/>
    </person>
    <vehicle id="17_0" depart="triggered">
        <route edges="gneE14.37 gneE15 gneE9 gneE10 gneE28 gneE31 gneE69 gneE72 -gneE75"/>
    </vehicle>
    <person id="17" depart="51.00">
        <ride from="gneE14.37" to="-gneE75" lines="17_0"/>
    </person>
    <vehicle id="19_0" depart="triggered">
        <route edges="-gneE29 -gneE28 -gneE10 -gneE9 -gneE15"/>
    </vehicle>
    <person id="19" depart="57.00">
        <ride from="-gneE29" to="-gneE15" lines="19_0"/>
    </person>
    <vehicle id="20_0" depart="triggered">
        <route edges="gneE10 gneE11 gneE0 gneE1 -gneE4"/>
    </vehicle>
    <person id="20" depart="60.00">
        <ride from="gneE10" to="-gneE4" lines="20_0"/>
    </person>
    <person id="21" depart="63.00">
        <walk edges="gneE21 -gneE3 gneE5"/>
    </person>
    <vehicle id="22_0" depart="triggered">
        <route edges="-gneE22 -gneE21 gneE4 -gneE1 -gneE0 -gneE30 -gneE49"/>
    </vehicle>
    <person id="22" depart="66.00">
        <ride from="-gneE22" to="-gneE49" lines="22_0"/>
    </person>
    <vehicle id="23_0" depart="triggered">
        <route edges="gneE43 gneE45 gneE54 gneE56 gneE39 -gneE8"/>
    </vehicle>
    <person id="23" depart="69.00">
        <ride from="gneE43" to="-gneE8" lines="23_0"/>
    </person>
    <vehicle id="24_0" depart="triggered">
        <route edges="-gneE12 gneE11 gneE0 -gneE39 -gneE56 gneE55 gneE57"/>
    </vehicle>
    <person id="24" depart="72.00">
        <ride from="-gneE12" to="gneE57" lines="24_0"/>
    </person>
    <vehicle id="26_0" depart="triggered">
        <route edges="gneE60 gneE64 gneE54 gneE56 gneE39 -gneE0 -gneE11 gneE12 gneE13 -gneE19"/>
    </vehicle>
    <person id="26" depart="78.00">
        <ride from="gneE60" to="-gneE19" lines="26_0"/>
    </person>
    <vehicle id="28_0" depart="triggered">
        <route edges="gneE15 gneE9 gneE10 gneE28 gneE31 gneE69 gneE72"/>
    </vehicle>
    <person id="28" depart="84.00">
        <ride from="gneE15" to="gneE72" lines="28_0"/>
    </person>
    <vehicle id="29_0" depart="triggered">
        <route edges="-gneE58 gneE48 gneE49 gneE30 gneE0 gneE1 -gneE4 -gneE3"/>
    </vehicle>
    <person id="29" depart="87.00">
        <ride from="-gneE58" to="-gneE3" lines="29_0"/>
    </person>
    <vehicle id="30_0" depart="triggered">
        <route edges="gneE54 gneE56 gneE39 -gneE8 -gneE7 -gneE5"/>
    </vehicle>
    <person id="30" depart="90.00">
        <ride from="gneE54" to="-gneE5" lines="30_0"/>
    </person>
    <vehicle id="31_0" depart="triggered">
        <route edges="-gneE71 -gneE70 -gneE31 gneE29 gneE50 gneE51 -gneE46 -gneE45 -gneE43 gneE38"/>
    </vehicle>
    <person id="31" depart="93.00">
        <ride from="-gneE71" to="gneE38" lines="31_0"/>
    </person>
    <vehicle id="33_0" depart="triggered">
        <route edges="gneE17 -gneE3 gneE5 gneE9 gneE10 gneE12 gneE13"/>
    </vehicle>
    <person id="33" depart="99.00">
        <ride from="gneE17" to="gneE13" lines="33_0"/>
    </person>
    <vehicle id="34_0" depart="triggered">
        <route edges="gneE12 gneE13 -gneE19 gneE10 gneE11 gneE0 -gneE39 -gneE38 -gneE37 -gneE36 -gneE35"/>
    </vehicle>
    <person id="34" depart="102.00">
        <ride from="gneE12" to="-gneE35" lines="34_0"/>
    </person>
    <vehicle id="35_0" depart="triggered">
        <route edges="-gneE14 -gneE14.46 -gneE19 gneE10 gneE11 gneE0 -gneE39 -gneE38 -gneE37 gneE66 gneE68"/>
    </vehicle>
    <person id="35" depart="105.00">
        <ride from="-gneE14" to="gneE68" lines="35_0"/>
    </person>
    <vehicle id="36_0" depart="triggered">
        <route edges="-gneE40 gneE37 gneE38 gneE39 -gneE0 -gneE11 gneE28 gneE31 gneE69 gneE73 gneE76"/>
    </vehicle>
    <person id="36" depart="108.00">
        <ride from="-gneE40" to="gneE76" lines="36_0"/>
    </person>
    <vehicle id="37_0" depart="triggered">
        <route edges="gneE31 gneE69 gneE72 -gneE75 -gneE74 -gneE73"/>
    </vehicle>
    <person id="37" depart="111.00">
        <ride from="gneE31" to="-gneE73" lines="37_0"/>
    </person>
    <person id="38" depart="114.00">
        <walk edges="gneE78 -gneE78 -gneE77 -gneE76 gneE74 gneE75 -gneE72 -gneE69 gneE70 gneE71 -gneE71 -gneE70 -gneE31 -gneE28 gneE12 -gneE12 -gneE10 gneE9 gneE5 gneE2 -gneE26"/>
    </person>
    <vehicle id="39_0" depart="triggered">
        <route edges="-gneE22 -gneE21 -gneE3 gneE5 gneE9 gneE10 gneE28 gneE29 gneE50 gneE51"/>
    </vehicle>
    <person id="39" depart="117.00">
        <ride from="-gneE22" to="gneE51" lines="39_0"/>
    </person>
    <vehicle id="40_0" depart="triggered">
        <route edges="-gneE33 gneE14.37 gneE15 gneE7 gneE8 -gneE39 -gneE56 -gneE54 -gneE64 -gneE60 -gneE58"/>
    </vehicle>
    <person id="40" depart="120.00">
        <ride from="-gneE33" to="-gneE58" lines="40_0"/>
    </person>
    <person id="41" depart="123.00">
        <walk edges="gneE65 gneE43 gneE37 -gneE66 -gneE67 gneE67 -gneE68 gneE68 gneE66 gneE36 gneE35 -gneE34 gneE34 gneE26 -gneE2 -gneE18"/>
    </person>
    <vehicle id="42_0" depart="triggered">
        <route edges="-gneE9 gneE7 gneE8 -gneE0 -gneE11"/>
    </vehicle>
    <person id="42" depart="126.00">
        <ride from="-gneE9" to="-gneE11" lines="42_0"/>
    </person>
    <vehicle id="43_0" depart="triggered">
        <route edges="gneE50 gneE51 gneE47 gneE48 gneE49"/>
    </vehicle>
    <person id="43" depart="129.00">
        <ride from="gneE50" to="gneE49" lines="43_0"/>
    </person>
    <vehicle id="44_0" depart="triggered">
        <route edges="-gneE39 -gneE38 -gneE37 -gneE36 -gneE35 -gneE26 -gneE4 -gneE17 -gneE16"/>
    </vehicle>
    <person id="44" depart="132.00">
        <ride from="-gneE39" to="-gneE16" lines="44_0"/>
    </person>
    <vehicle id="45_0" depart="triggered">
        <route edges="-gneE52 -gneE50 -gneE29 -gneE28 gneE12 gneE25"/>
    </vehicle>
    <person id="45" depart="135.00">
        <ride from="-gneE52" to="gneE25" lines="45_0"/>
    </person>
    <vehicle id="46_0" depart="triggered">
        <route edges="-gneE51 -gneE50 gneE30 gneE0 -gneE8"/>
    </vehicle>
    <person id="46" depart="138.00">
        <ride from="-gneE51" to="-gneE8" lines="46_0"/>
    </person>
    <vehicle id="47_0" depart="triggered">
        <route edges="-gneE60 -gneE58 gneE48 gneE49 -gneE29 -gneE28"/>
    </vehicle>
    <person id="47" depart="141.00">
        <ride from="-gneE60" to="-gneE28" lines="47_0"/>
    </person>
    <vehicle id="48_0" depart="triggered">
        <route edges="-gneE13 -gneE12 gneE11 gneE0 -gneE39 -gneE38 -gneE37 gneE40 -gneE41"/>
    </vehicle>
    <person id="48" depart="144.00">
        <ride from="-gneE13" to="-gneE41" lines="48_0"/>
    </person>
    <vehicle id="49_0" depart="triggered">
        <route edges="-gneE61 gneE64 gneE54 gneE56 gneE39 -gneE8 -gneE7 -gneE15 -gneE14 gneE32"/>
    </vehicle>
    <person id="49" depart="147.00">
        <ride from="-gneE61" to="gneE32" lines="49_0"/>
    </person>
    <vehicle id="50_0" depart="triggered">
        <route edges="-gneE41 gneE39 -gneE0 -gneE11 gneE12"/>
    </vehicle>
    <person id="50" depart="150.00">
        <ride from="-gneE41" to="gneE12" lines="50_0"/>
    </person>
    <vehicle id="51_0" depart="triggered">
        <route edges="gneE52 gneE53 -gneE55 gneE56 gneE39 -gneE0 -gneE11 -gneE10 -gneE9 gneE7 gneE8"/>
    </vehicle>
    <person id="51" depart="153.00">
        <ride from="gneE52" to="gneE8" lines="51_0"/>
    </person>
    <vehicle id="52_0" depart="triggered">
        <route edges="-gneE76 -gneE73 -gneE69 -gneE31 -gneE28 -gneE10 -gneE9 -gneE5 gneE3 gneE21 gneE22"/>
    </vehicle>
    <person id="52" depart="156.00">
        <ride from="-gneE76" to="gneE22" lines="52_0"/>
    </person>
    <vehicle id="53_0" depart="triggered">
        <route edges="gneE16 gneE17 -gneE3 gneE18 -gneE14 gneE32"/>
    </vehicle>
    <person id="53" depart="159.00">
        <ride from="gneE16" to="gneE32" lines="53_0"/>
    </person>
    <person id="54" depart="162.00">
        <walk edges="-gneE25 gneE25 gneE12 -gneE28 -gneE31 -gneE70 -gneE71 gneE71 gneE70 -gneE69 -gneE72 gneE75 gneE74 -gneE76 -gneE77 -gneE78 gneE78 -gneE79"/>
    </person>
    <person id="55" depart="165.00">
        <walk edges="-gneE16 -gneE17 gneE21 gneE22 -gneE22"/>
    </person>
    <vehicle id="57_0" depart="triggered">
        <route edges="-gneE53 -gneE52 gneE51 -gneE46"/>
    </vehicle>
    <person id="57" depart="171.00">
        <ride from="-gneE53" to="-gneE46" lines="57_0"/>
    </person>
    <vehicle id="58_0" depart="triggered">
        <route edges="gneE37 gneE38 -gneE56 -gneE54 gneE46 -gneE51"/>
    </vehicle>
    <person id="58" depart="174.00">
        <ride from="gneE37" to="-gneE51" lines="58_0"/>
    </person>
    <vehicle id="60_0" depart="triggered">
        <route edges="gneE10 gneE11 -gneE30 -gneE49 -gneE48 gneE58 gneE60 gneE64"/>
    </vehicle>
    <person id="60" depart="180.00">
        <ride from="gneE10" to="gneE64" lines="60_0"/>
    </person>
    <vehicle id="63_0" depart="triggered">
        <route edges="gneE55 -gneE53 -gneE52 -gneE50 gneE30 gneE0 gneE1 gneE2 gneE5"/>
    </vehicle>
    <person id="63" depart="189.00">
        <ride from="gneE55" to="gneE5" lines="63_0"/>
    </person>
    <vehicle id="64_0" depart="triggered">
        <route edges="-gneE18 -gneE2 gneE26 gneE35 gneE36 gneE37 gneE38 gneE39"/>
    </vehicle>
    <person id="64" depart="192.00">
        <ride from="-gneE18" to="gneE39" lines="64_0"/>
    </person>
    <vehicle id="65_0" depart="triggered">
        <route edges="-gneE78 -gneE77 gneE49 gneE30 gneE0 gneE1 -gneE4 gneE21 gneE22"/>
    </vehicle>
    <person id="65" depart="195.00">
        <ride from="-gneE78" to="gneE22" lines="65_0"/>
    </person>
    <person id="66" depart="198.00">
        <walk edges="-gneE20 -gneE7 gneE9 -gneE10 -gneE12 gneE12 -gneE28 -gneE31 -gneE70 -gneE71 gneE71 gneE70 -gneE69 -gneE72 gneE75 gneE74 -gneE76 -gneE77 -gneE78 gneE78 -gneE79 gneE79 gneE77 gneE48 -gneE58 -gneE59"/>
    </person>
    <vehicle id="67_0" depart="triggered">
        <route edges="-gneE11 gneE28 gneE29 -gneE49 -gneE48"/>
    </vehicle>
    <person id="67" depart="201.00">
        <ride from="-gneE11" to="-gneE48" lines="67_0"/>
    </person>
    <vehicle id="68_0" depart="triggered">
        <route edges="-gneE37 gneE40 -gneE41 -gneE38 gneE43"/>
    </vehicle>
    <person id="68" depart="204.00">
        <ride from="-gneE37" to="gneE43" lines="68_0"/>
    </person>
    <vehicle id="69_0" depart="triggered">
        <route edges="gneE37 gneE38 gneE39 -gneE0 -gneE30 gneE50"/>
    </vehicle>
    <person id="69" depart="207.00">
        <ride from="gneE37" to="gneE50" lines="69_0"/>
    </person>
    <vehicle id="70_0" depart="triggered">
        <route edges="-gneE66 gneE37 gneE38 gneE39 -gneE0 -gneE11 gneE12 gneE25"/>
    </vehicle>
    <person id="70" depart="210.00">
        <ride from="-gneE66" to="gneE25" lines="70_0"/>
    </person>
    <vehicle id="71_0" depart="triggered">
        <route edges="gneE14 gneE14.37 gneE15 gneE7 gneE8 -gneE39 -gneE56 -gneE54 gneE46 gneE47 gneE48"/>
    </vehicle>
    <person id="71" depart="213.00">
        <ride from="gneE14" to="gneE48" lines="71_0"/>
    </person>
    <person id="72" depart="216.00">
        <walk edges="gneE66 gneE68 -gneE68 gneE67 -gneE67 -gneE66 gneE37 gneE43 gneE65 -gneE65 gneE45 -gneE64 gneE61"/>
    </person>
    <vehicle id="73_0" depart="triggered">
        <route edges="-gneE0 -gneE11 gneE28 gneE29 gneE30 gneE0 -gneE8"/>
    </vehicle>
    <person id="73" depart="219.00">
        <ride from="-gneE0" to="-gneE8" lines="73_0"/>
    </person>
    <vehicle id="74_0" depart="triggered">
        <route edges="-gneE19 gneE10 gneE11 gneE0 -gneE39 -gneE56 -gneE54 -gneE64 gneE61 gneE62"/>
    </vehicle>
    <person id="74" depart="222.00">
        <ride from="-gneE19" to="gneE62" lines="74_0"/>
    </person>
    <vehicle id="75_0" depart="triggered">
        <route edges="gneE14 gneE14.37 gneE15 gneE7 gneE8 -gneE0 -gneE11 -gneE10"/>
    </vehicle>
    <person id="75" depart="225.00">
        <ride from="gneE14" to="-gneE10" lines="75_0"/>
    </person>
    <vehicle id="76_0" depart="triggered">
        <route edges="gneE74 gneE75 -gneE72 -gneE69 -gneE31 -gneE28 -gneE10 -gneE9 -gneE5 gneE3 -gneE17 -gneE16"/>
    </vehicle>
    <person id="76" depart="228.00">
        <ride from="gneE74" to="-gneE16" lines="76_0"/>
    </person>
    <vehicle id="77_0" depart="triggered">
        <route edges="gneE46 gneE47 gneE48 gneE49 gneE50 gneE51"/>
    </vehicle>
    <person id="77" depart="231.00">
        <ride from="gneE46" to="gneE51" lines="77_0"/>
    </person>
    <vehicle id="78_0" depart="triggered">
        <route edges="-gneE72 gneE73 gneE76 gneE77 gneE79"/>
    </vehicle>
    <person id="78" depart="234.00">
        <ride from="-gneE72" to="gneE79" lines="78_0"/>
    </person>
    <vehicle id="79_0" depart="triggered">
        <route edges="gneE15 -gneE5 gneE18 -gneE14 gneE33"/>
    </vehicle>
    <person id="79" depart="237.00">
        <ride from="gneE15" to="gneE33" lines="79_0"/>
    </person>
    <vehicle id="80_0" depart="triggered">
        <route edges="-gneE13 -gneE12 gneE28 gneE29 gneE50 gneE52 gneE53"/>
    </vehicle>
    <person id="80" depart="240.00">
        <ride from="-gneE13" to="gneE53" lines="80_0"/>
    </person>
    <vehicle id="81_0" depart="triggered">
        <route edges="-gneE58 gneE48 gneE49 gneE30 gneE0 -gneE8 -gneE7 -gneE15 gneE16 gneE17"/>
    </vehicle>
    <person id="81" depart="243.00">
        <ride from="-gneE58" to="gneE17" lines="81_0"/>
    </person>
    <vehicle id="82_0" depart="triggered">
        <route edges="-gneE53 -gneE52 gneE51 -gneE46 -gneE64 gneE61 gneE62"/>
    </vehicle>
    <person id="82" depart="246.00">
        <ride from="-gneE53" to="gneE62" lines="82_0"/>
    </person>
    <vehicle id="84_0" depart="triggered">
        <route edges="gneE38 gneE41 -gneE40 gneE37 gneE43 gneE45"/>
    </vehicle>
    <person id="84" depart="252.00">
        <ride from="gneE38" to="gneE45" lines="84_0"/>
    </person>
    <vehicle id="86_0" depart="triggered">
        <route edges="-gneE4 -gneE17 gneE24"/>
    </vehicle>
    <person id="86" depart="258.00">
        <ride from="-gneE4" to="gneE24" lines="86_0"/>
    </person>
    <vehicle id="87_0" depart="triggered">
        <route edges="-gneE80 gneE64 gneE54 gneE56 gneE39 -gneE8 gneE20"/>
    </vehicle>
    <person id="87" depart="261.00">
        <ride from="-gneE80" to="gneE20" lines="87_0"/>
    </person>
    <vehicle id="88_0" depart="triggered">
        <route edges="-gneE25"/>
    </vehicle>
    <person id="88" depart="264.00">
        <ride from="-gneE25" to="-gneE25" lines="88_0"/>
    </person>
    <vehicle id="89_0" depart="triggered">
        <route edges="gneE37 gneE38 -gneE56 -gneE54 gneE46"/>
    </vehicle>
    <person id="89" depart="267.00">
        <ride from="gneE37" to="gneE46" lines="89_0"/>
    </person>
    <vehicle id="90_0" depart="triggered">
        <route edges="-gneE63 -gneE61 gneE64 gneE54 gneE55 -gneE53"/>
    </vehicle>
    <person id="90" depart="270.00">
        <ride from="-gneE63" to="-gneE53" lines="90_0"/>
    </person>
    <vehicle id="91_0" depart="triggered">
        <route edges="-gneE33 gneE14.37 gneE16 gneE17"/>
    </vehicle>
    <person id="91" depart="273.00">
        <ride from="-gneE33" to="gneE17" lines="91_0"/>
    </person>
    <vehicle id="92_0" depart="triggered">
        <route edges="-gneE66 gneE37 gneE38 gneE39 -gneE0 -gneE11 gneE12 gneE13"/>
    </vehicle>
    <person id="92" depart="276.00">
        <ride from="-gneE66" to="gneE13" lines="92_0"/>
    </person>
    <vehicle id="93_0" depart="triggered">
        <route edges="gneE49 gneE50 gneE51 -gneE46 gneE54 gneE55 -gneE53"/>
    </vehicle>
    <person id="93" depart="279.00">
        <ride from="gneE49" to="-gneE53" lines="93_0"/>
    </person>
    <vehicle id="94_0" depart="triggered">
        <route edges="-gneE32 -gneE14.46 -gneE19 gneE10 gneE11 -gneE30 -gneE29"/>
    </vehicle>
    <person id="94" depart="282.00">
        <ride from="-gneE32" to="-gneE29" lines="94_0"/>
    </person>
    <vehicle id="95_0" depart="triggered">
        <route edges="-gneE14 -gneE14.46 -gneE19 gneE10 gneE11 -gneE30"/>
    </vehicle>
    <person id="95" depart="285.00">
        <ride from="-gneE14" to="-gneE30" lines="95_0"/>
    </person>
    <person id="96" depart="288.00">
        <walk edges="gneE41 -gneE39 -gneE1 gneE4 gneE17 -gneE24"/>
    </person>
    <person id="97" depart="291.00">
        <walk edges="gneE32 -gneE14 gneE18 gneE5"/>
    </person>
    <vehicle id="98_0" depart="triggered">
        <route edges="-gneE29"/>
    </vehicle>
    <person id="98" depart="294.00">
        <ride from="-gneE29" to="-gneE29" lines="98_0"/>
    </person>
    <vehicle id="99_0" depart="triggered">
        <route edges="-gneE34 gneE35 gneE36 gneE37 gneE38 -gneE56 -gneE54 -gneE64 -gneE60 -gneE58"/>
    </vehicle>
    <person id="99" depart="297.00">
        <ride from="-gneE34" to="-gneE58" lines="99_0"/>
    </person>
    <vehicle id="100_0" depart="triggered">
        <route edges="-gneE5 gneE18 -gneE14 -gneE14.46 -gneE19 gneE10 gneE28 gneE31 gneE70"/>
    </vehicle>
    <person id="100" depart="300.00">
        <ride from="-gneE5" to="gneE70" lines="100_0"/>
    </person>
    <person id="101" depart="303.00">
        <walk edges="gneE59 -gneE59 -gneE58 gneE48 gneE77 gneE79 -gneE79 gneE78 -gneE78 -gneE77 -gneE76 gneE74 gneE75 -gneE72 -gneE69 gneE70 gneE71 -gneE71 -gneE70 -gneE31 -gneE28 gneE12 -gneE12 -gneE10 gneE9 -gneE7 gneE20"/>
    </person>
    <vehicle id="102_0" depart="triggered">
        <route edges="-gneE49 -gneE76 -gneE73 -gneE69 -gneE31"/>
    </vehicle>
    <person id="102" depart="306.00">
        <ride from="-gneE49" to="-gneE31" lines="102_0"/>
    </person>
    <vehicle id="103_0" depart="triggered">
        <route edges="gneE14.37 gneE15 gneE9 gneE10 gneE28 gneE31 gneE69 gneE73 gneE76 gneE49"/>
    </vehicle>
    <person id="103" depart="309.00">
        <ride from="gneE14.37" to="gneE49" lines="103_0"/>
    </person>
    <vehicle id="104_0" depart="triggered">
        <route edges="-gneE29 -gneE28 -gneE10 -gneE9 -gneE5 -gneE2"/>
    </vehicle>
    <person id="104" depart="312.00">
        <ride from="-gneE29" to="-gneE2" lines="104_0"/>
    </person>
    <vehicle id="105_0" depart="triggered">
        <route edges="-gneE2 -gneE1 -gneE0 -gneE30 -gneE49 -gneE76 gneE74 gneE75 -gneE72"/>
    </vehicle>
    <person id="105" depart="315.00">
        <ride from="-gneE2" to="-gneE72" lines="105_0"/>
    </person>
    <person id="106" depart="318.00">
        <walk edges="gneE11 gneE10 gneE9 gneE5 -gneE2 gneE26 gneE34 -gneE34 gneE35 gneE36 gneE66 gneE68 -gneE68"/>
    </person>
    <vehicle id="107_0" depart="triggered">
        <route edges="-gneE2 -gneE1 -gneE0 -gneE30 -gneE49 -gneE48 gneE58 gneE60 gneE64"/>
    </vehicle>
    <person id="107" depart="321.00">
        <ride from="-gneE2" to="gneE64" lines="107_0"/>
    </person>
    <vehicle id="108_0" depart="triggered">
        <route edges="-gneE28 gneE11 gneE0 gneE1 -gneE4 -gneE3"/>
    </vehicle>
    <person id="108" depart="324.00">
        <ride from="-gneE28" to="-gneE3" lines="108_0"/>
    </person>
    <vehicle id="109_0" depart="triggered">
        <route edges="-gneE33 gneE14.37 gneE15 gneE7 gneE8 -gneE39 -gneE56 -gneE54 -gneE64 -gneE60 -gneE58"/>
    </vehicle>
    <person id="109" depart="327.00">
        <ride from="-gneE33" to="-gneE58" lines="109_0"/>
    </person>
    <vehicle id="110_0" depart="triggered">
        <route edges="-gneE18 -gneE2 -gneE1 -gneE39 -gneE56 -gneE54 -gneE64 -gneE60 -gneE58"/>
    </vehicle>
    <person id="110" depart="330.00">
        <ride from="-gneE18" to="-gneE58" lines="110_0"/>
    </person>
    <vehicle id="111_0" depart="triggered">
        <route edges="-gneE40 -gneE36 -gneE35 -gneE26 gneE2 gneE18"/>
    </vehicle>
    <person id="111" depart="333.00">
        <ride from="-gneE40" to="gneE18" lines="111_0"/>
    </person>
    <person id="114" depart="342.00">
        <walk edges="-gneE4 -gneE26 -gneE35 -gneE36 -gneE40 -gneE42"/>
    </person>
    <vehicle id="115_0" depart="triggered">
        <route edges="gneE30 gneE0 gneE1 gneE2"/>
    </vehicle>
    <person id="115" depart="345.00">
        <ride from="gneE30" to="gneE2" lines="115_0"/>
    </person>
    <vehicle id="117_0" depart="triggered">
        <route edges="-gneE60 -gneE58 gneE48 gneE49 gneE30 gneE0 -gneE8 -gneE7 -gneE5 gneE3 gneE4"/>
    </vehicle>
    <person id="117" depart="351.00">
        <ride from="-gneE60" to="gneE4" lines="117_0"/>
    </person>
    <vehicle id="118_0" depart="triggered">
        <route edges="-gneE0 -gneE11 -gneE10 -gneE9 -gneE5 gneE3 gneE21 gneE23"/>
    </vehicle>
    <person id="118" depart="354.00">
        <ride from="-gneE0" to="gneE23" lines="118_0"/>
    </person>
    <vehicle id="119_0" depart="triggered">
        <route edges="-gneE53 -gneE52 gneE51 gneE47"/>
    </vehicle>
    <person id="119" depart="357.00">
        <ride from="-gneE53" to="gneE47" lines="119_0"/>
    </person>
    <vehicle id="120_0" depart="triggered">
        <route edges="gneE18 -gneE14 -gneE14.46 -gneE19 gneE10 gneE28 gneE29 gneE30"/>
    </vehicle>
    <person id="120" depart="360.00">
        <ride from="gneE18" to="gneE30" lines="120_0"/>
    </person>
    <person id="121" depart="363.00">
        <walk edges="gneE48 gneE77 gneE79 -gneE79 gneE78 -gneE78 -gneE77 -gneE76 gneE74 gneE75 -gneE72 -gneE69 gneE70 gneE71 -gneE71 -gneE70 -gneE31 -gneE28 gneE12 gneE13 gneE14 gneE14.37 gneE16 gneE24 -gneE24"/>
    </person>
    <person id="122" depart="366.00">
        <walk edges="-gneE63 gneE62 -gneE62 -gneE61 -gneE60 gneE59 -gneE59"/>
    </person>
    <vehicle id="123_0" depart="triggered">
        <route edges="-gneE37 gneE40 -gneE41 gneE39 -gneE0 -gneE30 -gneE49 -gneE76 -gneE73 -gneE69 -gneE31"/>
    </vehicle>
    <person id="123" depart="369.00">
        <ride from="-gneE37" to="-gneE31" lines="123_0"/>
    </person>
    <vehicle id="124_0" depart="triggered">
        <route edges="gneE76 gneE49 -gneE29 gneE31 gneE70"/>
    </vehicle>
    <person id="124" depart="372.00">
        <ride from="gneE76" to="gneE70" lines="124_0"/>
    </person>
    <vehicle id="125_0" depart="triggered">
        <route edges="-gneE58 -gneE47 -gneE46 -gneE45 -gneE43 -gneE37 -gneE36 -gneE35"/>
    </vehicle>
    <person id="125" depart="375.00">
        <ride from="-gneE58" to="-gneE35" lines="125_0"/>
    </person>
    <vehicle id="126_0" depart="triggered">
        <route edges="gneE1 gneE26 gneE35 gneE36 gneE37 gneE38 -gneE56 -gneE54 -gneE64 gneE61 gneE62"/>
    </vehicle>
    <person id="126" depart="378.00">
        <ride from="gneE1" to="gneE62" lines="126_0"/>
    </person>
    <vehicle id="128_0" depart="triggered">
        <route edges="-gneE15 -gneE18 -gneE2 gneE26 gneE35 gneE36 gneE66"/>
    </vehicle>
    <person id="128" depart="384.00">
        <ride from="-gneE15" to="gneE66" lines="128_0"/>
    </person>
    <person id="129" depart="387.00">
        <walk edges="-gneE18 -gneE2 gneE26 gneE34 -gneE34 gneE35 gneE36 gneE66 gneE68 -gneE68 gneE67 -gneE67 -gneE66 gneE37 gneE43 gneE65 -gneE65 gneE45 -gneE64 gneE61 gneE63 -gneE63 gneE62 -gneE62"/>
    </person>
    <vehicle id="130_0" depart="triggered">
        <route edges="gneE11 gneE0 -gneE8 -gneE7 gneE9 gneE10"/>
    </vehicle>
    <person id="130" depart="390.00">
        <ride from="gneE11" to="gneE10" lines="130_0"/>
    </person>
    <vehicle id="132_0" depart="triggered">
        <route edges="gneE35 gneE36 gneE40 -gneE41 -gneE38 -gneE37 -gneE36 -gneE35 gneE34"/>
    </vehicle>
    <person id="132" depart="396.00">
        <ride from="gneE35" to="gneE34" lines="132_0"/>
    </person>
    <vehicle id="133_0" depart="triggered">
        <route edges="-gneE33 gneE14.37 gneE15 gneE9 gneE19 gneE14"/>
    </vehicle>
    <person id="133" depart="399.00">
        <ride from="-gneE33" to="gneE14" lines="133_0"/>
    </person>
    <vehicle id="134_0" depart="triggered">
        <route edges="gneE2 gneE5 gneE9 gneE10 gneE28 gneE29 gneE50 gneE51 -gneE46"/>
    </vehicle>
    <person id="134" depart="402.00">
        <ride from="gneE2" to="-gneE46" lines="134_0"/>
    </person>
    <vehicle id="135_0" depart="triggered">
        <route edges="gneE58 gneE60 gneE64 gneE54 gneE56 gneE39 -gneE0 -gneE30"/>
    </vehicle>
    <person id="135" depart="405.00">
        <ride from="gneE58" to="-gneE30" lines="135_0"/>
    </person>
    <vehicle id="136_0" depart="triggered">
        <route edges="-gneE80 -gneE60 -gneE58 gneE48 gneE77"/>
    </vehicle>
    <person id="136" depart="408.00">
        <ride from="-gneE80" to="gneE77" lines="136_0"/>
    </person>
    <vehicle id="138_0" depart="triggered">
        <route edges="gneE29 gneE30 -gneE11 gneE12"/>
    </vehicle>
    <person id="138" depart="414.00">
        <ride from="gneE29" to="gneE12" lines="138_0"/>
    </person>
    <vehicle id="139_0" depart="triggered">
        <route edges="-gneE38 -gneE37 -gneE36 -gneE35 -gneE26 -gneE4 gneE21"/>
    </vehicle>
    <person id="139" depart="417.00">
        <ride from="-gneE38" to="gneE21" lines="139_0"/>
    </person>
    <vehicle id="141_0" depart="triggered">
        <route edges="gneE3 gneE4 -gneE1 -gneE39 -gneE56 -gneE54 -gneE45 -gneE43"/>
    </vehicle>
    <person id="141" depart="423.00">