<?xml version="1.0" encoding="UTF-8"?>
<!-- generated on 2020-03-03 15:05:37.189911 by randomTrips.py v1_5_0+0000-3a3be608d2
  options: -n helloo.net.xml <doubleminus>route-file=helloo.rou.xml -e 2000 <doubleminus>period 3
-->
<routes xmlns:xsi="http://www.w3.org/2001/XMLSchema-instance" xsi:noNamespaceSchemaLocation="http://sumo.dlr.de/xsd/routes_file.xsd">
    <trip id="0" depart="0.00" from="-gneE5" to="-gneE56"/>
    <trip id="1" depart="3.00" from="gneE50" to="-gneE50"/>
    <trip id="2" depart="6.00" from="-gneE76" to="-gneE31"/>
    <trip id="3" depart="9.00" from="gneE28" to="gneE66"/>
    <trip id="4" depart="12.00" from="-gneE10" to="-gneE52"/>
    <trip id="5" depart="15.00" from="gneE15" to="-gneE19"/>
    <trip id="6" depart="18.00" from="gneE15" to="gneE46"/>
    <trip id="7" depart="21.00" from="-gneE38" to="-gneE37"/>
    <trip id="8" depart="24.00" from="gneE49" to="gneE22"/>
    <trip id="9" depart="27.00" from="-gneE53" to="-gneE2"/>
    <trip id="10" depart="30.00" from="-gneE3" to="gneE65"/>
    <trip id="11" depart="33.00" from="-gneE59" to="gneE20"/>
    <trip id="12" depart="36.00" from="gneE55" to="gneE54"/>
    <trip id="13" depart="39.00" from="-gneE72" to="-gneE58"/>
    <trip id="14" depart="42.00" from="gneE10" to="gneE15"/>
    <trip id="15" depart="45.00" from="-gneE73" to="-gneE77"/>
    <trip id="16" depart="48.00" from="-gneE12" to="-gneE66"/>
    <trip id="17" depart="51.00" from="-gneE16" to="gneE45"/>
    <trip id="18" depart="54.00" from="gneE53" to="gneE73"/>
    <trip id="19" depart="57.00" from="-gneE70" to="-gneE54"/>
    <trip id="20" depart="60.00" from="gneE16" to="-gneE58"/>
    <trip id="21" depart="63.00" from="gneE2" to="-gneE29"/>
    <trip id="22" depart="66.00" from="-gneE2" to="gneE73"/>
    <trip id="23" depart="69.00" from="gneE4" to="gneE34"/>
    <trip id="24" depart="72.00" from="-gneE62" to="gneE57"/>
    <trip id="25" depart="75.00" from="gneE1" to="-gneE58"/>
    <trip id="26" depart="78.00" from="-gneE40" to="gneE71"/>
    <trip id="27" depart="81.00" from="-gneE24" to="-gneE49"/>
    <trip id="28" depart="84.00" from="-gneE38" to="gneE34"/>
    <trip id="29" depart="87.00" from="-gneE19" to="-gneE11"/>
    <trip id="30" depart="90.00" from="gneE56" to="gneE60"/>
    <trip id="31" depart="93.00" from="gneE48" to="gneE56"/>
    <trip id="32" depart="96.00" from="-gneE75" to="gneE71"/>
    <trip id="33" depart="99.00" from="-gneE60" to="gneE3"/>
    <trip id="34" depart="102.00" from="gneE76" to="-gneE74"/>
    <trip id="35" depart="105.00" from="gneE9" to="gneE1"/>
    <trip id="36" depart="108.00" from="-gneE31" to="gneE24"/>
    <trip id="37" depart="111.00" from="-gneE8" to="-gneE46"/>
    <trip id="38" depart="114.00" from="-gneE12" to="gneE28"/>
    <trip id="39" depart="117.00" from="-gneE73" to="gneE30"/>
    <trip id="40" depart="120.00" from="-gneE63" to="-gneE75"/>
    <trip id="41" depart="123.00" from="-gneE42" to="-gneE16"/>
    <trip id="42" depart="126.00" from="gneE10" to="-gneE58"/>
    <trip id="43" depart="129.00" from="-gneE75" to="-gneE75"/>
    <trip id="44" depart="132.00" from="-gneE13" to="-gneE45"/>
    <trip id="45" depart="135.00" from="-gneE80" to="gneE16"/>
    <trip id="46" depart="138.00" from="-gneE25" to="gneE9"/>
    <trip id="47" depart="141.00" from="-gneE15" to="-gneE4"/>
    <trip id="48" depart="144.00" from="-gneE77" to="-gneE58"/>
    <trip id="49" depart="147.00" from="-gneE10" to="-gneE56"/>
    <trip id="50" depart="150.00" from="gneE35" to="-gneE18"/>
    <trip id="51" depart="153.00" from="gneE13" to="gneE71"/>
    <trip id="52" depart="156.00" from="-gneE0" to="gneE14"/>
    <trip id="53" depart="159.00" from="-gneE45" to="-gneE72"/>
    <trip id="54" depart="162.00" from="-gneE61" to="gneE45"/>
    <trip id="55" depart="165.00" from="gneE9" to="gneE36"/>
    <trip id="56" depart="168.00" from="gneE21" to="-gneE50"/>
    <trip id="57" depart="171.00" from="gneE53" to="-gneE60"/>
    <trip id="58" depart="174.00" from="gneE12" to="-gneE4"/>
    <trip id="59" depart="177.00" from="-gneE26" to="gneE59"/>
    <trip id="60" depart="180.00" from="-gneE17" to="gneE26"/>
    <trip id="61" depart="183.00" from="-gneE49" to="gneE77"/>
    <trip id="62" depart="186.00" from="-gneE74" to="gneE70"/>
    <trip id="63" depart="189.00" from="gneE14" to="gneE56"/>
    <trip id="64" depart="192.00" from="-gneE25" to="gneE14"/>
    <trip id="65" depart="195.00" from="-gneE24" to="gneE35"/>
    <trip id="66" depart="198.00" from="gneE4" to="-gneE45"/>
    <trip id="67" depart="201.00" from="-gneE22" to="gneE73"/>
    <trip id="68" depart="204.00" from="gneE69" to="gneE64"/>
    <trip id="69" depart="207.00" from="gneE54" to="gneE21"/>
    <trip id="70" depart="210.00" from="gneE28" to="-gneE56"/>
    <trip id="71" depart="213.00" from="-gneE47" to="-gneE0"/>
    <trip id="72" depart="216.00" from="gneE64" to="-gneE43"/>
    <trip id="73" depart="219.00" from="-gneE23" to="gneE33"/>
    <trip id="74" depart="222.00" from="-gneE74" to="gneE66"/>
    <trip id="75" depart="225.00" from="gneE72" to="gneE79"/>
    <trip id="76" depart="228.00" from="-gneE35" to="gneE15"/>
    <trip id="77" depart="231.00" from="-gneE42" to="-gneE58"/>
    <trip id="78" depart="234.00" from="-gneE72" to="gneE2"/>
    <trip id="79" depart="237.00" from="-gneE35" to="gneE33"/>
    <trip id="80" depart="240.00" from="-gneE54" to="-gneE13"/>
    <trip id="81" depart="243.00" from="-gneE62" to="gneE69"/>
    <trip id="82" depart="246.00" from="-gneE58" to="gneE9"/>
    <trip id="83" depart="249.00" from="gneE73" to="-gneE40"/>
    <trip id="84" depart="252.00" from="gneE61" to="-gneE43"/>
    <trip id="85" depart="255.00" from="gneE7" to="-gneE18"/>
    <trip id="86" depart="258.00" from="-gneE16" to="gneE11"/>
    <trip id="87" depart="261.00" from="gneE35" to="gneE32"/>
    <trip id="88" depart="264.00" from="-gneE43" to="gneE79"/>
    <trip id="89" depart="267.00" from="-gneE18" to="gneE51"/>
    <trip id="90" depart="270.00" from="-gneE34" to="-gneE60"/>
    <trip id="91" depart="273.00" from="-gneE7" to="-gneE16"/>
    <trip id="92" depart="276.00" from="gneE43" to="gneE77"/>
    <trip id="93" depart="279.00" from="-gneE34" to="gneE59"/>
    <trip id="94" depart="282.00" from="-gneE46" to="-gneE12"/>
    <trip id="95" depart="285.00" from="-gneE76" to="-gneE5"/>
    <trip id="96" depart="288.00" from="-gneE40" to="gneE30"/>
    <trip id="97" depart="291.00" from="-gneE29" to="-gneE9"/>
    <trip id="98" depart="294.00" from="-gneE71" to="-gneE66"/>
    <trip id="99" depart="297.00" from="gneE26" to="gneE21"/>
    <trip id="100" depart="300.00" from="gneE58" to="gneE67"/>
    <trip id="101" depart="303.00" from="-gneE62" to="-gneE49"/>
    <trip id="102" depart="306.00" from="gneE4" to="gneE70"/>
    <trip id="103" depart="309.00" from="gneE51" to="-gneE45"/>
    <trip id="104" depart="312.00" from="-gneE7" to="-gneE70"/>
    <trip id="105" depart="315.00" from="-gneE45" to="gneE26"/>
    <trip id="106" depart="318.00" from="-gneE64" to="-gneE36"/>
    <trip id="107" depart="321.00" from="-gneE24" to="gneE32"/>
    <trip id="108" depart="324.00" from="gneE4" to="gneE5"/>
    <trip id="109" depart="327.00" from="-gneE42" to="-gneE73"/>
    <trip id="110" depart="330.00" from="gneE61" to="gneE18"/>
    <trip id="111" depart="333.00" from="-gneE22" to="gneE22"/>
    <trip id="112" depart="336.00" from="gneE64" to="-gneE58"/>
    <trip id="113" depart="339.00" from="-gneE34" to="gneE55"/>
    <trip id="114" depart="342.00" from="gneE1" to="gneE78"/>
    <trip id="115" depart="345.00" from="gneE12" to="-gneE26"/>
    <trip id="116" depart="348.00" from="gneE5" to="gneE51"/>
    <trip id="117" depart="351.00" from="-gneE3" to="gneE14.37"/>
    <trip id="118" depart="354.00" from="-gneE31" to="gneE49"/>
    <trip id="119" depart="357.00" from="gneE28" to="gneE22"/>
    <trip id="120" depart="360.00" from="gneE1" to="gneE14.37"/>
    <trip id="121" depart="363.00" from="-gneE24" to="-gneE17"/>
    <trip id="122" depart="366.00" from="-gneE14.46" to="-gneE18"/>
    <trip id="123" depart="369.00" from="gneE16" to="gneE62"/>
    <trip id="124" depart="372.00" from="gneE29" to="-gneE43"/>
    <trip id="125" depart="375.00" from="-gneE71" to="gneE42"/>
    <trip id="126" depart="378.00" from="-gneE79" to="gneE51"/>
    <trip id="127" depart="381.00" from="gneE10" to="-gneE2"/>
    <trip id="128" depart="384.00" from="gneE45" to="gneE76"/>
    <trip id="129" depart="387.00" from="gneE51" to="-gneE45"/>
    <trip id="130" depart="390.00" from="gneE13" to="gneE0"/>
    <trip id="131" depart="393.00" from="gneE18" to="-gneE14.46"/>
    <trip id="132" depart="396.00" from="-gneE23" to="-gneE37"/>
    <trip id="133" depart="399.00" from="-gneE22" to="gneE61"/>
    <trip id="134" depart="402.00" from="-gneE7" to="gneE9"/>
    <trip id="135" depart="405.00" from="gneE18" to="gneE33"/>
    <trip id="136" depart="408.00" from="-gneE62" to="-gneE21"/>
    <trip id="137" depart="411.00" from="gneE21" to="gneE68"/>
    <trip id="138" depart="414.00" from="-gneE35" to="gneE31"/>
    <trip id="139" depart="417.00" from="-gneE3" to="-gneE40"/>
    <trip id="140" depart="420.00" from="-gneE16" to="gneE25"/>
    <trip id="141" depart="423.00" from="gneE35" to="-gneE0"/>
    <trip id="142" depart="426.00" from="-gneE20" to="gneE25"/>
    <trip id="143" depart="429.00" from="-gneE49" to="gneE48"/>
    <trip id="144" depart="432.00" from="-gneE11" to="gneE72"/>
    <trip id="145" depart="435.00" from="gneE29" to="gneE34"/>
    <trip id="146" depart="438.00" from="gneE3" to="-gneE76"/>
    <trip id="147" depart="441.00" from="-gneE63" to="gneE70"/>
    <trip id="148" depart="444.00" from="-gneE76" to="gneE20"/>
    <trip id="149" depart="447.00" from="-gneE40" to="-gneE40"/>
    <trip id="150" depart="450.00" from="gneE2" to="-gneE48"/>
    <trip id="151" depart="453.00" from="-gneE72" to="gneE50"/>
    <trip id="152" depart="456.00" from="gneE28" to="gneE52"/>
    <trip id="153" depart="459.00" from="-gneE23" to="-gneE36"/>
    <trip id="154" depart="462.00" from="gneE11" to="gneE17"/>
    <trip id="155" depart="465.00" from="-gneE35" to="-gneE21"/>
    <trip id="156" depart="468.00" from="gneE9" to="gneE80"/>
    <trip id="157" depart="471.00" from="gneE29" to="-gneE75"/>
    <trip id="158" depart="474.00" from="-gneE4" to="gneE0"/>
    <trip id="159" depart="477.00" from="-gneE62" to="gneE72"/>
    <trip id="160" depart="480.00" from="-gneE58" to="gneE55"/>
    <trip id="161" depart="483.00" from="-gneE11" to="gneE43"/>
    <trip id="162" depart="486.00" from="-gneE69" to="-gneE72"/>
    <trip id="163" depart="489.00" from="gneE0" to="-gneE16"/>
    <trip id="164" depart="492.00" from="gneE10" to="gneE25"/>
    <trip id="165" depart="495.00" from="-gneE37" to="-gneE35"/>
    <trip id="166" depart="498.00" from="gneE43" to="-gneE51"/>
    <trip id="167" depart="501.00" from="-gneE13" to="-gneE1"/>
    <trip id="168" depart="504.00" from="gneE76" to="-gneE12"/>
    <trip id="169" depart="507.00" from="-gneE1" to="gneE52"/>
    <trip id="170" depart="510.00" from="-gneE40" to="gneE45"/>
    <trip id="171" depart="513.00" from="-gneE69" to="gneE70"/>
    <trip id="172" depart="516.00" from="gneE3" to="-gneE69"/>
    <trip id="173" depart="519.00" from="gneE39" to="gneE8"/>
    <trip id="174" depart="522.00" from="-gneE13" to="gneE30"/>
    <trip id="175" depart="525.00" from="gneE21" to="-gneE49"/>
    <trip id="176" depart="528.00" from="-gneE37" to="gneE39"/>
    <trip id="177" depart="531.00" from="-gneE0" to="gneE3"/>
    <trip id="178" depart="534.00" from="gneE73" to="gneE47"/>
    <trip id="179" depart="537.00" from="-gneE28" to="gneE10"/>
    <trip id="180" depart="540.00" from="-gneE80" to="-gneE60"/>
    <trip id="181" depart="543.00" from="-gneE4" to="-gneE40"/>
    <trip id="182" depart="546.00" from="-gneE37" to="gneE16"/>
    <trip id="183" depart="549.00" from="gneE41" to="gneE61"/>
    <trip id="184" depart="552.00" from="gneE53" to="gneE16"/>
    <trip id="185" depart="555.00" from="-gneE21" to="gneE71"/>
    <trip id="186" depart="558.00" from="gneE45" to="gneE50"/>
    <trip id="187" depart="561.00" from="gneE14.37" to="gneE30"/>
    <trip id="188" depart="564.00" from="gneE16" to="-gneE73"/>
    <trip id="189" depart="567.00" from="-gneE46" to="gneE69"/>
    <trip id="190" depart="570.00" from="-gneE55" to="-gneE3"/>
    <trip id="191" depart="573.00" from="-gneE16" to="gneE31"/>
    <trip id="192" depart="576.00" from="-gneE72" to="-gneE73"/>
    <trip id="193" depart="579.00" from="-gneE59" to="gneE37"/>
    <trip id="194" depart="582.00" from="gneE2" to="-gneE73"/>
    <trip id="195" depart="585.00" from="-gneE72" to="gneE50"/>
    <trip id="196" depart="588.00" from="-gneE42" to="gneE71"/>
    <trip id="197" depart="591.00" from="-gneE75" to="-gneE7"/>
    <trip id="198" depart="594.00" from="gneE70" to="gneE65"/>
    <trip id="199" depart="597.00" from="gneE14" to="gneE1"/>
    <trip id="200" depart="600.00" from="-gneE18" to="gneE31"/>
    <trip id="201" depart="603.00" from="gneE14.37" to="-gneE39"/>
    <trip id="202" depart="606.00" from="gneE69" to="-gneE54"/>
    <trip id="203" depart="609.00" from="-gneE61" to="-gneE55"/>
    <trip id="204" depart="612.00" from="-gneE23" to="gneE36"/>
    <trip id="205" depart="615.00" from="gneE12" to="gneE22"/>
    <trip id="206" depart="618.00" from="-gneE13" to="gneE46"/>
    <trip id="207" depart="621.00" from="-gneE3" to="-gneE49"/>
    <trip id="208" depart="624.00" from="-gneE66" to="gneE14"/>
    <trip id="209" depart="627.00" from="-gneE58" to="-gneE0"/>
    <trip id="210" depart="630.00" from="-gneE79" to="gneE23"/>
    <trip id="211" depart="633.00" from="-gneE54" to="-gneE4"/>
    <trip id="212" depart="636.00" from="-gneE56" to="-gneE11"/>
    <trip id="213" depart="639.00" from="gneE1" to="-gneE8"/>
    <trip id="214" depart="642.00" from="-gneE74" to="gneE7"/>
    <trip id="215" depart="645.00" from="gneE75" to="-gneE58"/>
    <trip id="216" depart="648.00" from="-gneE32" to="gneE20"/>
    <trip id="217" depart="651.00" from="gneE36" to="gneE53"/>
    <trip id="218" depart="654.00" from="gneE61" to="-gneE15"/>
    <trip id="219" depart="657.00" from="-gneE3" to="gneE43"/>
    <trip id="220" depart="660.00" from="-gneE75" to="gneE32"/>
    <trip id="221" depart="663.00" from="gneE73" to="-gneE36"/>
    <trip id="222" depart="666.00" from="-gneE26" to="-gneE56"/>
    <trip id="223" depart="669.00" from="gneE4" to="-gneE29"/>
    <trip id="224" depart="672.00" from="-gneE23" to="-gneE18"/>
    <trip id="225" depart="675.00" from="-gneE70" to="gneE33"/>
    <trip id="226" depart="678.00" from="-gneE12" to="-gneE52"/>
    <trip id="227" depart="681.00" from="gneE14" to="-gneE9"/>
    <trip id="228" depart="684.00" from="-gneE10" to="-gneE77"/>
    <trip id="229" depart="687.00" from="gneE70" to="gneE67"/>
    <trip id="230" depart="690.00" from="gneE1" to="-gneE13"/>
    <trip id="231" depart="693.00" from="-gneE2" to="gneE51"/>
    <trip id="232" depart="696.00" from="-gneE45" to="gneE74"/>
    <trip id="233" depart="699.00" from="gneE14" to="-gneE35"/>
    <trip id="234" depart="702.00" from="-gneE41" to="-gneE61"/>
    <trip id="235" depart="705.00" from="gneE45" to="gneE72"/>
    <trip id="236" depart="708.00" from="-gneE62" to="gneE60"/>
    <trip id="237" depart="711.00" from="-gneE61" to="gneE54"/>
    <trip id="238" depart="714.00" from="-gneE45" to="gneE12"/>
    <trip id="239" depart="717.00" from="-gneE23" to="gneE36"/>
    <trip id="240" depart="720.00" from="gneE61" to="-gneE75"/>
    <trip id="241" depart="723.00" from="gneE41" to="-gneE70"/>
    <trip id="242" depart="726.00" from="-gneE72" to="gneE30"/>
    <trip id="243" depart="729.00" from="-gneE29" to="-gneE2"/>
    <trip id="244" depart="732.00" from="gneE66" to="gneE8"/>
    <trip id="245" depart="735.00" from="-gneE63" to="gneE22"/>
    <trip id="246" depart="738.00" from="-gneE56" to="gneE80"/>
    <trip id="247" depart="741.00" from="-gneE21" to="gneE24"/>
    <trip id="248" depart="744.00" from="-gneE46" to="-gneE66"/>
    <trip id="249" depart="747.00" from="-gneE62" to="gneE15"/>
    <trip id="250" depart="750.00" from="gneE4" to="gneE71"/>
    <trip id="251" depart="753.00" from="-gneE19" to="-gneE76"/>
    <trip id="252" depart="756.00" from="-gneE77" to="gneE7"/>
    <trip id="253" depart="759.00" from="-gneE80" to="gneE52"/>
    <trip id="254" depart="762.00" from="-gneE39" to="gneE18"/>
    <trip id="255" depart="765.00" from="gneE56" to="gneE20"/>
    <trip id="256" depart="768.00" from="-gneE66" to="gneE73"/>
    <trip id="257" depart="771.00" from="-gneE5" to="gneE28"/>
    <trip id="258" depart="774.00" from="gneE8" to="gneE54"/>
    <trip id="259" depart="777.00" from="gneE26" to="-gneE51"/>
    <trip id="260" depart="780.00" from="-gneE8" to="-gneE29"/>
    <trip id="261" depart="783.00" from="-gneE11" to="-gneE51"/>
    <trip id="262" depart="786.00" from="-gneE46" to="-gneE26"/>
    <trip id="263" depart="789.00" from="gneE12" to="gneE72"/>
    <trip id="264" depart="792.00" from="-gneE51" to="-gneE73"/>
    <trip id="265" depart="795.00" from="-gneE38" to="gneE66"/>
    <trip id="266" depart="798.00" from="gneE52" to="-gneE29"/>
    <trip id="267" depart="801.00" from="-gneE30" to="gneE45"/>
    <trip id="268" depart="804.00" from="-gneE54" to="gneE43"/>
    <trip id="269" depart="807.00" from="-gneE15" to="gneE73"/>
    <trip id="270" depart="810.00" from="-gneE34" to="gneE76"/>
    <trip id="271" depart="813.00" from="-gneE35" to="gneE69"/>
    <trip id="272" depart="816.00" from="-gneE2" to="-gneE21"/>
    <trip id="273" depart="819.00" from="-gneE64" to="-gneE5"/>
    <trip id="274" depart="822.00" from="-gneE9" to="gneE37"/>
    <trip id="275" depart="825.00" from="gneE31" to="gneE34"/>
    <trip id="276" depart="828.00" from="gneE36" to="gneE42"/>
    <trip id="277" depart="831.00" from="-gneE8" to="gneE39"/>
    <trip id="278" depart="834.00" from="gneE21" to="gneE45"/>
    <trip id="279" depart="837.00" from="gneE14" to="gneE32"/>
    <trip id="280" depart="840.00" from="-gneE62" to="-gneE13"/>
    <trip id="281" depart="843.00" from="-gneE51" to="-gneE64"/>
    <trip id="282" depart="846.00" from="-gneE36" to="-gneE41"/>
    <trip id="283" depart="849.00" from="-gneE64" to="gneE36"/>
    <trip id="284" depart="852.00" from="-gneE50" to="gneE26"/>
    <trip id="285" depart="855.00" from="-gneE0" to="-gneE28"/>
    <trip id="286" depart="858.00" from="-gneE9" to="-gneE39"/>
    <trip id="287" depart="861.00" from="gneE14" to="gneE68"/>
    <trip id="288" depart="864.00" from="-gneE12" to="gneE39"/>
    <trip id="289" depart="867.00" from="-gneE17" to="-gneE73"/>
    <trip id="290" depart="870.00" from="-gneE55" to="-gneE11"/>
    <trip id="291" depart="873.00" from="gneE60" to="gneE0"/>
    <trip id="292" depart="876.00" from="gneE37" to="gneE62"/>
    <trip id="293" depart="879.00" from="gneE77" to="-gneE53"/>
    <trip id="294" depart="882.00" from="gneE58" to="-gneE14"/>
    <trip id="295" depart="885.00" from="-gneE19" to="gneE2"/>
    <trip id="296" depart="888.00" from="gneE4" to="-gneE49"/>
    <trip id="297" depart="891.00" from="-gneE72" to="-gneE56"/>
    <trip id="298" depart="894.00" from="-gneE77" to="gneE3"/>
    <trip id="299" depart="897.00" from="-gneE75" to="-gneE10"/>
    <trip id="300" depart="900.00" from="gneE18" to="-gneE12"/>
    <trip id="301" depart="903.00" from="-gneE18" to="gneE25"/>
    <trip id="302" depart="906.00" from="gneE40" to="gneE19"/>
    <trip id="303" depart="909.00" from="gneE5" to="-gneE38"/>
    <trip id="304" depart="912.00" from="gneE46" to="-gneE70"/>
    <trip id="305" depart="915.00" from="gneE13" to="gneE10"/>
    <trip id="306" depart="918.00" from="-gneE61" to="-gneE2"/>
    <trip id="307" depart="921.00" from="-gneE22" to="gneE11"/>
    <trip id="308" depart="924.00" from="-gneE45" to="-gneE16"/>
    <trip id="309" depart="927.00" from="gneE13" to="-gneE48"/>
    <trip id="310" depart="930.00" from="gneE52" to="gneE51"/>
    <trip id="311" depart="933.00" from="-gneE0" to="gneE68"/>
    <trip id="312" depart="936.00" from="-gneE45" to="gneE76"/>
    <trip id="313" depart="939.00" from="-gneE5" to="-gneE54"/>
    <trip id="314" depart="942.00" from="gneE73" to="gneE23"/>
    <trip id="315" depart="945.00" from="gneE56" to="-gneE45"/>
    <trip id="316" depart="948.00" from="-gneE41" to="gneE33"/>
    <trip id="317" depart="951.00" from="gneE14.37" to="-gneE9"/>
    <trip id="318" depart="954.00" from="gneE56" to="-gneE28"/>
    <trip id="319" depart="957.00" from="gneE13" to="-gneE5"/>
    <trip id="320" depart="960.00" from="gneE66" to="-gneE1"/>
    <trip id="321" depart="963.00" from="-gneE62" to="-gneE52"/>
    <trip id="322" depart="966.00" from="gneE11" to="gneE22"/>
    <trip id="323" depart="969.00" from="-gneE55" to="gneE20"/>
    <trip id="324" depart="972.00" from="-gneE32" to="gneE40"/>
    <trip id="325" depart="975.00" from="-gneE70" to="-gneE58"/>
    <trip id="326" depart="978.00" from="-gneE73" to="gneE74"/>
    <trip id="327" depart="981.00" from="gneE8" to="gneE23"/>
    <trip id="328" depart="984.00" from="gneE36" to="gneE32"/>
    <trip id="329" depart="987.00" from="-gneE38" to="-gneE55"/>
    <trip id="330" depart="990.00" from="gneE30" to="-gneE5"/>
    <trip id="331" depart="993.00" from="gneE0" to="-gneE14.46"/>
    <trip id="332" depart="996.00" from="gneE19" to="gneE67"/>
    <trip id="333" depart="999.00" from="-gneE47" to="-gneE61"/>
    <trip id="334" depart="1002.00" from="-gneE62" to="gneE29"/>
    <trip id="335" depart="1005.00" from="-gneE31" to="gneE54"/>
    <trip id="336" depart="1008.00" from="-gneE37" to="gneE76"/>
    <trip id="337" depart="1011.00" from="gneE56" to="-gneE61"/>
    <trip id="338" depart="1014.00" from="-gneE21" to="gneE53"/>
    <trip id="339" depart="1017.00" from="gneE13" to="-gneE43"/>
    <trip id="340" depart="1020.00" from="gneE58" to="gneE40"/>
    <trip id="341" depart="1023.00" from="-gneE57" to="gneE78"/>
    <trip id="342" depart="1026.00" from="-gneE19" to="-gneE29"/>
    <trip id="343" depart="1029.00" from="gneE9" to="gneE52"/>
    <trip id="344" depart="1032.00" from="gneE38" to="gneE79"/>
    <trip id="345" depart="1035.00" from="-gneE60" to="-gneE38"/>
    <trip id="346" depart="1038.00" from="-gneE65" to="gneE54"/>
    <trip id="347" depart="1041.00" from="gneE64" to="-gneE28"/>
    <trip id="348" depart="1044.00" from="-gneE18" to="gneE71"/>
    <trip id="349" depart="1047.00" from="gneE48" to="gneE16"/>
    <trip id="350" depart="1050.00" from="-gneE65" to="gneE32"/>
    <trip id="351" depart="1053.00" from="gneE7" to="gneE48"/>
    <trip id="352" depart="1056.00" from="gneE69" to="gneE10"/>
    <trip id="353" depart="1059.00" from="gneE2" to="-gneE66"/>
    <trip id="354" depart="1062.00" from="-gneE36" to="gneE7"/>
    <trip id="355" depart="1065.00" from="gneE48" to="-gneE13"/>
    <trip id="356" depart="1068.00" from="gneE41" to="gneE35"/>
    <trip id="357" depart="1071.00" from="gneE14.37" to="gneE80"/>
    <trip id="358" depart="1074.00" from="-gneE80" to="-gneE3"/>
    <trip id="359" depart="1077.00" from="gneE31" to="gneE72"/>
    <trip id="360" depart="1080.00" from="gneE76" to="gneE20"/>
    <trip id="361" depart="1083.00" from="-gneE5" to="-gneE74"/>
    <trip id="362" depart="1086.00" from="-gneE50" to="-gneE41"/>
    <trip id="363" depart="1089.00" from="gneE19" to="gneE79"/>
    <trip id="364" depart="1092.00" from="-gneE35" to="gneE14"/>
    <trip id="365" depart="1095.00" from="gneE74" to="gneE15"/>
    <trip id="366" depart="1098.00" from="gneE55" to="-gneE38"/>
    <trip id="367" depart="1101.00" from="-gneE51" to="-gneE4"/>
    <trip id="368" depart="1104.00" from="gneE1" to="gneE54"/>
    <trip id="369" depart="1107.00" from="-gneE9" to="gneE69"/>
    <trip id="370" depart="1110.00" from="-gneE32" to="gneE50"/>
    <trip id="371" depart="1113.00" from="-gneE71" to="gneE45"/>
    <trip id="372" depart="1116.00" from="-gneE60" to="gneE0"/>
    <trip id="373" depart="1119.00" from="-gneE67" to="-gneE18"/>
    <trip id="374" depart="1122.00" from="-gneE76" to="-gneE7"/>
    <trip id="375" depart="1125.00" from="-gneE49" to="-gneE48"/>
    <trip id="376" depart="1128.00" from="gneE29" to="-gneE54"/>
    <trip id="377" depart="1131.00" from="-gneE68" to="gneE68"/>
    <trip id="378" depart="1134.00" from="gneE52" to="-gneE36"/>
    <trip id="379" depart="1137.00" from="-gneE60" to="gneE29"/>
    <trip id="380" depart="1140.00" from="gneE1" to="-gneE28"/>
    <trip id="381" depart="1143.00" from="-gneE25" to="-gneE10"/>
    <trip id="382" depart="1146.00" from="gneE69" to="-gneE48"/>
    <trip id="383" depart="1149.00" from="-gneE9" to="-gneE55"/>
    <trip id="384" depart="1152.00" from="-gneE47" to="-gneE14"/>
    <trip id="385" depart="1155.00" from="-gneE31" to="gneE15"/>
    <trip id="386" depart="1158.00" from="-gneE73" to="gneE9"/>
    <trip id="387" depart="1161.00" from="gneE75" to="-gneE64"/>
    <trip id="388" depart="1164.00" from="-gneE62" to="-gneE50"/>
    <trip id="389" depart="1167.00" from="-gneE54" to="gneE12"/>
    <trip id="390" depart="1170.00" from="-gneE31" to="gneE3"/>
    <trip id="391" depart="1173.00" from="gneE60" to="-gneE5"/>
    <trip id="392" depart="1176.00" from="gneE49" to="-gneE11"/>
    <trip id="393" depart="1179.00" from="gneE29" to="-gneE48"/>
    <trip id="394" depart="1182.00" from="-gneE52" to="gneE35"/>
    <trip id="395" depart="1185.00" from="gneE58" to="-gneE74"/>
    <trip id="396" depart="1188.00" from="gneE70" to="gneE3"/>
    <trip id="397" depart="1191.00" from="gneE66" to="-gneE66"/>
    <trip id="398" depart="1194.00" from="-gneE4" to="gneE64"/>
    <trip id="399" depart="1197.00" from="-gneE77" to="-gneE2"/>
    <trip id="400" depart="1200.00" from="-gneE60" to="-gneE45"/>
    <trip id="401" depart="1203.00" from="gneE48" to="-gneE54"/>
    <trip id="402" depart="1206.00" from="-gneE45" to="gneE53"/>
    <trip id="403" depart="1209.00" from="gneE5" to="gneE53"/>
    <trip id="404" depart="1212.00" from="-gneE54" to="-gneE54"/>
    <trip id="405" depart="1215.00" from="gneE52" to="-gneE13"/>
    <trip id="406" depart="1218.00" from="-gneE12" to="gneE20"/>
    <trip id="407" depart="1221.00" from="-gneE29" to="-gneE48"/>
    <trip id="408" depart="1224.00" from="gneE56" to="-gneE52"/>
    <trip id="409" depart="1227.00" from="gneE36" to="-gneE29"/>
    <trip id="410" depart="1230.00" from="-gneE14.46" to="gneE54"/>
    <trip id="411" depart="1233.00" from="-gneE79" to="gneE14.37"/>
    <trip id="412" depart="1236.00" from="gneE66" to="-gneE28"/>
    <trip id="413" depart="1239.00" from="-gneE14" to="gneE29"/>
    <trip id="414" depart="1242.00" from="gneE28" to="gneE3"/>
    <trip id="415" depart="1245.00" from="gneE39" to="-gneE74"/>
    <trip id="416" depart="1248.00" from="gneE77" to="gneE32"/>
    <trip id="417" depart="1251.00" from="gneE39" to="gneE78"/>
    <trip id="418" depart="1254.00" from="gneE70" to="gneE14"/>
    <trip id="419" depart="1257.00" from="-gneE52" to="gneE0"/>
    <trip id="420" depart="1260.00" from="gneE0" to="-gneE58"/>
    <trip id="421" depart="1263.00" from="-gneE21" to="-gneE46"/>
    <trip id="422" depart="1266.00" from="gneE77" to="-gneE8"/>
    <trip id="423" depart="1269.00" from="-gneE30" to="gneE29"/>
    <trip id="424" depart="1272.00" from="gneE75" to="-gneE75"/>
    <trip id="425" depart="1275.00" from="-gneE72" to="gneE49"/>
    <trip id="426" depart="1278.00" from="-gneE75" to="gneE69"/>
    <trip id="427" depart="1281.00" from="-gneE8" to="-gneE54"/>
    <trip id="428" depart="1284.00" from="-gneE66" to="gneE68"/>
    <trip id="429" depart="1287.00" from="gneE38" to="gneE57"/>
    <trip id="430" depart="1290.00" from="gneE39" to="gneE11"/>
    <trip id="431" depart="1293.00" from="gneE54" to="gneE10"/>
    <trip id="432" depart="1296.00" from="-gneE7" to="-gneE76"/>
    <trip id="433" depart="1299.00" from="-gneE43" to="-gneE36"/>
    <trip id="434" depart="1302.00" from="-gneE4" to="-gneE12"/>
    <trip id="435" depart="1305.00" from="-gneE9" to="gneE15"/>
    <trip id="436" depart="1308.00" from="-gneE76" to="-gneE4"/>
    <trip id="437" depart="1311.00" from="gneE31" to="gneE17"/>
    <trip id="438" depart="1314.00" from="-gneE53" to="-gneE9"/>
    <trip id="439" depart="1317.00" from="gneE75" to="gneE3"/>
    <trip id="440" depart="1320.00" from="-gneE77" to="gneE3"/>
    <trip id="441" depart="1323.00" from="gneE14" to="gneE70"/>
    <trip id="442" depart="1326.00" from="gneE17" to="gneE30"/>
    <trip id="443" depart="1329.00" from="-gneE38" to="gneE31"/>
    <trip id="444" depart="1332.00" from="-gneE15" to="-gneE12"/>
    <trip id="445" depart="1335.00" from="-gneE69" to="-gneE4"/>
    <trip id="446" depart="1338.00" from="gneE18" to="-gneE0"/>
    <trip id="447" depart="1341.00" from="gneE48" to="-gneE74"/>
    <trip id="448" depart="1344.00" from="-gneE72" to="gneE14"/>
    <trip id="449" depart="1347.00" from="-gneE39" to="-gneE21"/>
    <trip id="450" depart="1350.00" from="gneE31" to="gneE64"/>
    <trip id="451" depart="1353.00" from="gneE16" to="gneE65"/>
    <trip id="452" depart="1356.00" from="-gneE50" to="gneE76"/>
    <trip id="453" depart="1359.00" from="gneE28" to="gneE55"/>
    <trip id="454" depart="1362.00" from="-gneE20" to="gneE13"/>
    <trip id="455" depart="1365.00" from="gneE28" to="-gneE12"/>
    <trip id="456" depart="1368.00" from="-gneE30" to="-gneE19"/>
    <trip id="457" depart="1371.00" from="gneE58" to="gneE39"/>
    <trip id="458" depart="1374.00" from="-gneE10" to="gneE52"/>
    <trip id="459" depart="1377.00" from="-gneE34" to="gneE26"/>
    <trip id="460" depart="1380.00" from="gneE35" to="-gneE77"/>
    <trip id="461" depart="1383.00" from="gneE17" to="gneE21"/>
    <trip id="462" depart="1386.00" from="gneE10" to="-gneE43"/>
    <trip id="463" depart="1389.00" from="gneE53" to="gneE70"/>