<?xml version="1.0" encoding="UTF-8"?>
<!-- generated on 2020-03-05 13:33:17.257057 by randomTrips.py v1_5_0+0000-3a3be608d2
  options: -n helloo.net.xml <doubleminus>route-file=helloo.rou.xml -e 2000 <doubleminus>period 3 <doubleminus>persontrips <doubleminus>trip-attributes modes="public car" <doubleminus>additional-file helloo.add.xml
-->
<routes xmlns:xsi="http://www.w3.org/2001/XMLSchema-instance" xsi:noNamespaceSchemaLocation="http://sumo.dlr.de/xsd/routes_file.xsd">
    <person id="0" depart="0.00">
        <personTrip from="gneE55" to="gneE22" modes="public car"/>
    </person>
    <person id="1" depart="3.00">
        <personTrip from="gneE39" to="-gneE73" modes="public car"/>
    </person>
    <person id="2" depart="6.00">
        <personTrip from="gneE18" to="-gneE1" modes="public car"/>
    </person>
    <person id="3" depart="9.00">
        <personTrip from="-gneE16" to="-gneE16" modes="public car"/>
    </person>
    <person id="4" depart="12.00">
        <personTrip from="-gneE45" to="-gneE71" modes="public car"/>
    </person>
    <person id="5" depart="15.00">
        <personTrip from="-gneE62" to="gneE3" modes="public car"/>
    </person>
    <person id="6" depart="18.00">
        <personTrip from="-gneE51" to="-gneE18" modes="public car"/>
    </person>
    <person id="7" depart="21.00">
        <personTrip from="-gneE52" to="gneE31" modes="public car"/>
    </person>
    <person id="8" depart="24.00">
        <personTrip from="gneE70" to="-gneE40" modes="public car"/>
    </person>
    <person id="9" depart="27.00">
        <personTrip from="-gneE66" to="-gneE2" modes="public car"/>
    </person>
    <person id="10" depart="30.00">
        <personTrip from="-gneE48" to="gneE2" modes="public car"/>
    </person>
    <person id="11" depart="33.00">
        <personTrip from="-gneE56" to="gneE21" modes="public car"/>
    </person>
    <person id="12" depart="36.00">
        <personTrip from="gneE33" to="-gneE48" modes="public car"/>
    </person>
    <person id="13" depart="39.00">
        <personTrip from="-gneE48" to="-gneE11" modes="public car"/>
    </person>
    <person id="14" depart="42.00">
        <personTrip from="gneE18" to="gneE63" modes="public car"/>
    </person>
    <person id="15" depart="45.00">
        <personTrip from="gneE49" to="gneE7" modes="public car"/>
    </person>
    <person id="16" depart="48.00">
        <personTrip from="-gneE4" to="gneE19" modes="public car"/>
    </person>
    <person id="17" depart="51.00">
        <personTrip from="gneE69" to="gneE4" modes="public car"/>
    </person>
    <person id="18" depart="54.00">
        <personTrip from="gneE19" to="gneE71" modes="public car"/>
    </person>
    <person id="19" depart="57.00">
        <personTrip from="gneE51" to="-gneE15" modes="public car"/>
    </person>
    <person id="20" depart="60.00">
        <personTrip from="gneE42" to="gneE42" modes="public car"/>
    </person>
    <person id="21" depart="63.00">
        <personTrip from="-gneE64" to="-gneE77" modes="public car"/>
    </person>
    <person id="22" depart="66.00">
        <personTrip from="-gneE53" to="gneE25" modes="public car"/>
    </person>
    <person id="23" depart="69.00">
        <personTrip from="gneE4" to="-gneE57" modes="public car"/>
    </person>
    <person id="24" depart="72.00">
        <personTrip from="-gneE80" to="-gneE10" modes="public car"/>
    </person>
    <person id="25" depart="75.00">
        <personTrip from="-gneE62" to="gneE28" modes="public car"/>
    </person>
    <person id="26" depart="78.00">
        <personTrip from="gneE24" to="gneE73" modes="public car"/>
    </person>
    <person id="27" depart="81.00">
        <personTrip from="-gneE28" to="gneE68" modes="public car"/>
    </person>
    <person id="28" depart="84.00">
        <personTrip from="gneE74" to="gneE38" modes="public car"/>
    </person>
    <person id="29" depart="87.00">
        <personTrip from="gneE41" to="-gneE66" modes="public car"/>
    </person>
    <person id="30" depart="90.00">
        <personTrip from="-gneE35" to="-gneE78" modes="public car"/>
    </person>
    <person id="31" depart="93.00">
        <personTrip from="-gneE3" to="-gneE22" modes="public car"/>
    </person>
    <person id="32" depart="96.00">
        <personTrip from="gneE23" to="gneE18" modes="public car"/>
    </person>
    <person id="33" depart="99.00">
        <personTrip from="gneE41" to="-gneE63" modes="public car"/>
    </person>
    <person id="34" depart="102.00">
        <personTrip from="-gneE59" to="-gneE59" modes="public car"/>
    </person>
    <person id="35" depart="105.00">
        <personTrip from="gneE10" to="gneE25" modes="public car"/>
    </person>
    <person id="36" depart="108.00">
        <personTrip from="gneE70" to="gneE36" modes="public car"/>
    </person>
    <person id="37" depart="111.00">
        <personTrip from="gneE14.37" to="gneE18" modes="public car"/>
    </person>
    <person id="38" depart="114.00">
        <personTrip from="gneE46" to="gneE33" modes="public car"/>
    </person>
    <person id="39" depart="117.00">
        <personTrip from="-gneE38" to="gneE78" modes="public car"/>
    </person>
    <person id="40" depart="120.00">
        <personTrip from="gneE78" to="-gneE35" modes="public car"/>
    </person>
    <person id="41" depart="123.00">
        <personTrip from="gneE8" to="-gneE52" modes="public car"/>
    </person>
    <person id="42" depart="126.00">
        <personTrip from="gneE62" to="-gneE11" modes="public car"/>
    </person>
    <person id="43" depart="129.00">
        <personTrip from="gneE46" to="gneE37" modes="public car"/>
    </person>
    <person id="44" depart="132.00">
        <personTrip from="-gneE24" to="gneE55" modes="public car"/>
    </person>
    <person id="45" depart="135.00">
        <personTrip from="gneE79" to="-gneE47" modes="public car"/>
    </person>
    <person id="46" depart="138.00">
        <personTrip from="gneE75" to="-gneE66" modes="public car"/>
    </person>
    <person id="47" depart="141.00">
        <personTrip from="gneE45" to="gneE29" modes="public car"/>
    </person>
    <person id="48" depart="144.00">
        <personTrip from="-gneE77" to="-gneE45" modes="public car"/>
    </person>
    <person id="49" depart="147.00">
        <personTrip from="gneE38" to="gneE3" modes="public car"/>
    </person>
    <person id="50" depart="150.00">
        <personTrip from="gneE43" to="-gneE24" modes="public car"/>
    </person>
    <person id="51" depart="153.00">
        <personTrip from="-gneE34" to="gneE5" modes="public car"/>
    </person>
    <person id="52" depart="156.00">
        <personTrip from="-gneE77" to="gneE30" modes="public car"/>
    </person>
    <person id="53" depart="159.00">
        <personTrip from="-gneE39" to="-gneE39" modes="public car"/>
    </person>
    <person id="54" depart="162.00">
        <personTrip from="-gneE19" to="-gneE72" modes="public car"/>
    </person>
    <person id="55" depart="165.00">
        <personTrip from="gneE36" to="gneE47" modes="public car"/>
    </person>
    <person id="56" depart="168.00">
        <personTrip from="-gneE51" to="-gneE80" modes="public car"/>
    </person>
    <person id="57" depart="171.00">
        <personTrip from="gneE21" to="-gneE77" modes="public car"/>
    </person>
    <person id="58" depart="174.00">
        <personTrip from="-gneE19" to="-gneE43" modes="public car"/>
    </person>
    <person id="59" depart="177.00">
        <personTrip from="gneE41" to="gneE47" modes="public car"/>
    </person>
    <person id="60" depart="180.00">
        <personTrip from="-gneE13" to="-gneE14" modes="public car"/>
    </person>
    <person id="61" depart="183.00">
        <personTrip from="gneE25" to="gneE4" modes="public car"/>
    </person>
    <person id="62" depart="186.00">
        <personTrip from="gneE1" to="gneE14" modes="public car"/>
    </person>
    <person id="63" depart="189.00">
        <personTrip from="-gneE25" to="gneE5" modes="public car"/>
    </person>
    <person id="64" depart="192.00">
        <personTrip from="gneE9" to="gneE46" modes="public car"/>
    </person>
    <person id="65" depart="195.00">
        <personTrip from="gneE36" to="-gneE68" modes="public car"/>
    </person>
    <person id="66" depart="198.00">
        <personTrip from="-gneE29" to="-gneE70" modes="public car"/>
    </person>
    <person id="67" depart="201.00">
        <personTrip from="-gneE48" to="-gneE3" modes="public car"/>
    </person>
    <person id="68" depart="204.00">
        <personTrip from="gneE69" to="-gneE40" modes="public car"/>
    </person>
    <person id="69" depart="207.00">
        <personTrip from="-gneE46" to="gneE57" modes="public car"/>
    </person>
    <person id="70" depart="210.00">
        <personTrip from="gneE77" to="gneE63" modes="public car"/>
    </person>
    <person id="71" depart="213.00">
        <personTrip from="-gneE70" to="-gneE52" modes="public car"/>
    </person>
    <person id="72" depart="216.00">
        <personTrip from="-gneE55" to="-gneE51" modes="public car"/>
    </person>
    <person id="73" depart="219.00">
        <personTrip from="-gneE13" to="-gneE43" modes="public car"/>
    </person>
    <person id="74" depart="222.00">
        <personTrip from="-gneE62" to="gneE80" modes="public car"/>
    </person>
    <person id="75" depart="225.00">
        <personTrip from="-gneE61" to="-gneE76" modes="public car"/>
    </person>
    <person id="76" depart="228.00">
        <personTrip from="-gneE45" to="-gneE55" modes="public car"/>
    </person>
    <person id="77" depart="231.00">
        <personTrip from="-gneE21" to="gneE77" modes="public car"/>
    </person>
    <person id="78" depart="234.00">
        <personTrip from="-gneE34" to="-gneE1" modes="public car"/>
    </person>
    <person id="79" depart="237.00">
        <personTrip from="-gneE11" to="-gneE10" modes="public car"/>
    </person>
    <person id="80" depart="240.00">
        <personTrip from="-gneE15" to="gneE41" modes="public car"/>
    </person>
    <person id="81" depart="243.00">
        <personTrip from="-gneE48" to="gneE49" modes="public car"/>
    </person>
    <person id="82" depart="246.00">
        <personTrip from="gneE78" to="gneE51" modes="public car"/>
    </person>
    <person id="83" depart="249.00">
        <personTrip from="gneE77" to="-gneE78" modes="public car"/>
    </person>
    <person id="84" depart="252.00">
        <personTrip from="gneE3" to="-gneE1" modes="public car"/>
    </person>
    <person id="85" depart="255.00">
        <personTrip from="-gneE60" to="gneE9" modes="public car"/>
    </person>
    <person id="86" depart="258.00">
        <personTrip from="gneE2" to="-gneE26" modes="public car"/>
    </person>
    <person id="87" depart="261.00">
        <personTrip from="gneE5" to="gneE57" modes="public car"/>
    </person>
    <person id="88" depart="264.00">
        <personTrip from="gneE80" to="-gneE65" modes="public car"/>
    </person>
    <person id="89" depart="267.00">
        <personTrip from="-gneE26" to="-gneE67" modes="public car"/>
    </person>
    <person id="90" depart="270.00">
        <personTrip from="gneE15" to="-gneE10" modes="public car"/>
    </person>
    <person id="91" depart="273.00">
        <personTrip from="gneE42" to="gneE77" modes="public car"/>
    </person>
    <person id="92" depart="276.00">
        <personTrip from="-gneE17" to="-gneE32" modes="public car"/>
    </person>
    <person id="93" depart="279.00">
        <personTrip from="gneE46" to="-gneE29" modes="public car"/>
    </person>
    <person id="94" depart="282.00">
        <personTrip from="-gneE78" to="gneE19" modes="public car"/>
    </person>
    <person id="95" depart="285.00">
        <personTrip from="gneE67" to="gneE5" modes="public car"/>
    </person>
    <person id="96" depart="288.00">
        <personTrip from="-gneE17" to="-gneE51" modes="public car"/>
    </person>
    <person id="97" depart="291.00">
        <personTrip from="-gneE37" to="-gneE68" modes="public car"/>
    </person>
    <person id="98" depart="294.00">
        <personTrip from="-gneE71" to="-gneE73" modes="public car"/>
    </person>
    <person id="99" depart="297.00">
        <personTrip from="-gneE23" to="-gneE76" modes="public car"/>
    </person>
    <person id="100" depart="300.00">
        <personTrip from="gneE77" to="-gneE55" modes="public car"/>
    </person>
    <person id="101" depart="303.00">
        <personTrip from="gneE19" to="-gneE62" modes="public car"/>
    </person>
    <person id="102" depart="306.00">
        <personTrip from="-gneE57" to="gneE30" modes="public car"/>
    </person>
    <person id="103" depart="309.00">
        <personTrip from="gneE46" to="gneE25" modes="public car"/>
    </person>
    <person id="104" depart="312.00">
        <personTrip from="-gneE78" to="-gneE80" modes="public car"/>
    </person>
    <person id="105" depart="315.00">
        <personTrip from="-gneE55" to="-gneE0" modes="public car"/>
    </person>
    <person id="106" depart="318.00">
        <personTrip from="gneE36" to="gneE47" modes="public car"/>
    </person>
    <person id="107" depart="321.00">
        <personTrip from="gneE12" to="-gneE60" modes="public car"/>
    </person>
    <person id="108" depart="324.00">
        <personTrip from="gneE71" to="gneE32" modes="public car"/>
    </person>
    <person id="109" depart="327.00">
        <personTrip from="gneE17" to="-gneE67" modes="public car"/>
    </person>
    <person id="110" depart="330.00">
        <personTrip from="-gneE48" to="-gneE68" modes="public car"/>
    </person>
    <person id="111" depart="333.00">
        <personTrip from="-gneE0" to="-gneE31" modes="public car"/>
    </person>
    <person id="112" depart="336.00">
        <personTrip from="gneE41" to="gneE5" modes="public car"/>
    </person>
    <person id="113" depart="339.00">
        <personTrip from="-gneE8" to="-gneE20" modes="public car"/>
    </person>
    <person id="114" depart="342.00">
        <personTrip from="-gneE19" to="gneE65" modes="public car"/>
    </person>
    <person id="115" depart="345.00">
        <personTrip from="gneE70" to="-gneE14" modes="public car"/>
    </person>
    <person id="116" depart="348.00">
        <personTrip from="-gneE34" to="gneE22" modes="public car"/>
    </person>
    <person id="117" depart="351.00">
        <personTrip from="gneE77" to="gneE67" modes="public car"/>
    </person>
    <person id="118" depart="354.00">
        <personTrip from="-gneE80" to="-gneE67" modes="public car"/>
    </person>
    <person id="119" depart="357.00">
        <personTrip from="-gneE19" to="-gneE78" modes="public car"/>
    </person>
    <person id="120" depart="360.00">
        <personTrip from="gneE21" to="gneE30" modes="public car"/>
    </person>
    <person id="121" depart="363.00">
        <personTrip from="-gneE62" to="gneE42" modes="public car"/>
    </person>
    <person id="122" depart="366.00">
        <personTrip from="-gneE1" to="gneE78" modes="public car"/>
    </person>
    <person id="123" depart="369.00">
        <personTrip from="gneE2" to="gneE22" modes="public car"/>
    </person>
    <person id="124" depart="372.00">
        <personTrip from="gneE2" to="-gneE41" modes="public car"/>
    </person>
    <person id="125" depart="375.00">
        <personTrip from="-gneE50" to="gneE73" modes="public car"/>
    </person>
    <person id="126" depart="378.00">
        <personTrip from="gneE34" to="gneE79" modes="public car"/>
    </person>
    <person id="127" depart="381.00">
        <personTrip from="-gneE51" to="-gneE37" modes="public car"/>
    </person>
    <person id="128" depart="384.00">
        <personTrip from="-gneE40" to="gneE69" modes="public car"/>
    </person>
    <person id="129" depart="387.00">
        <personTrip from="-gneE48" to="gneE32" modes="public car"/>
    </person>
    <person id="130" depart="390.00">
        <personTrip from="-gneE74" to="gneE9" modes="public car"/>
    </person>
    <person id="131" depart="393.00">
        <personTrip from="gneE56" to="gneE50" modes="public car"/>
    </person>
    <person id="132" depart="396.00">
        <personTrip from="gneE7" to="-gneE5" modes="public car"/>
    </person>
    <person id="133" depart="399.00">
        <personTrip from="-gneE58" to="-gneE70" modes="public car"/>
    </person>
    <person id="134" depart="402.00">
        <personTrip from="-gneE31" to="-gneE10" modes="public car"/>
    </person>
    <person id="135" depart="405.00">
        <personTrip from="-gneE3" to="-gneE48" modes="public car"/>
    </person>
    <person id="136" depart="408.00">
        <personTrip from="-gneE77" to="gneE21" modes="public car"/>
    </person>
    <person id="137" depart="411.00">
        <personTrip from="-gneE55" to="gneE37" modes="public car"/>
    </person>
    <person id="138" depart="414.00">
        <personTrip from="gneE61" to="gneE25" modes="public car"/>
    </person>
    <person id="139" depart="417.00">
        <personTrip from="-gneE48" to="-gneE61" modes="public car"/>
    </person>
    <person id="140" depart="420.00">
        <personTrip from="gneE58" to="gneE77" modes="public car"/>
    </person>
    <person id="141" depart="423.00">
        <personTrip from="gneE50" to="-gneE59" modes="public car"/>
    </person>
    <person id="142" depart="426.00">
        <personTrip from="gneE4" to="-gneE32" modes="public car"/>
    </person>
    <person id="143" depart="429.00">
        <personTrip from="gneE29" to="-gneE14" modes="public car"/>
    </person>
    <person id="144" depart="432.00">
        <personTrip from="-gneE23" to="-gneE2" modes="public car"/>
    </person>
    <person id="145" depart="435.00">
        <personTrip from="-gneE46" to="gneE35" modes="public car"/>
    </person>
    <person id="146" depart="438.00">
        <personTrip from="gneE46" to="gneE4" modes="public car"/>
    </person>
    <person id="147" depart="441.00">
        <personTrip from="-gneE23" to="-gneE46" modes="public car"/>
    </person>
    <person id="148" depart="444.00">
        <personTrip from="-gneE58" to="-gneE47" modes="public car"/>
    </person>
    <person id="149" depart="447.00">
        <personTrip from="-gneE22" to="-gneE61" modes="public car"/>
    </person>
    <person id="150" depart="450.00">
        <personTrip from="-gneE12" to="gneE4" modes="public car"/>
    </person>
    <person id="151" depart="453.00">
        <personTrip from="-gneE42" to="gneE43" modes="public car"/>
    </person>
    <person id="152" depart="456.00">
        <personTrip from="gneE71" to="-gneE48" modes="public car"/>
    </person>
    <person id="153" depart="459.00">
        <personTrip from="gneE38" to="-gneE55" modes="public car"/>
    </person>
    <person id="154" depart="462.00">
        <personTrip from="-gneE79" to="-gneE35" modes="public car"/>
    </person>
    <person id="155" depart="465.00">
        <personTrip from="-gneE78" to="gneE9" modes="public car"/>
    </person>
    <person id="156" depart="468.00">
        <personTrip from="-gneE67" to="-gneE0" modes="public car"/>
    </person>
    <person id="157" depart="471.00">
        <personTrip from="-gneE22" to="gneE62" modes="public car"/>
    </person>
    <person id="158" depart="474.00">
        <personTrip from="-gneE5" to="gneE9" modes="public car"/>
    </person>
    <person id="159" depart="477.00">
        <personTrip from="-gneE14" to="gneE1" modes="public car"/>
    </person>
    <person id="160" depart="480.00">
        <personTrip from="-gneE77" to="-gneE8" modes="public car"/>
    </person>
    <person id="161" depart="483.00">
        <personTrip from="gneE63" to="gneE7" modes="public car"/>
    </person>
    <person id="162" depart="486.00">
        <personTrip from="-gneE71" to="-gneE31" modes="public car"/>
    </person>
    <person id="163" depart="489.00">
        <personTrip from="gneE25" to="gneE8" modes="public car"/>
    </person>
    <person id="164" depart="492.00">
        <personTrip from="gneE12" to="-gneE8" modes="public car"/>
    </person>
    <person id="165" depart="495.00">
        <personTrip from="-gneE56" to="gneE3" modes="public car"/>
    </person>
    <person id="166" depart="498.00">
        <personTrip from="gneE61" to="gneE75" modes="public car"/>
    </person>
    <person id="167" depart="501.00">
        <personTrip from="gneE68" to="-gneE5" modes="public car"/>
    </person>
    <person id="168" depart="504.00">
        <personTrip from="-gneE50" to="gneE10" modes="public car"/>
    </person>
    <person id="169" depart="507.00">
        <personTrip from="gneE36" to="gneE2" modes="public car"/>
    </person>
    <person id="170" depart="510.00">
        <personTrip from="-gneE29" to="gneE20" modes="public car"/>
    </person>
    <person id="171" depart="513.00">
        <personTrip from="gneE64" to="gneE78" modes="public car"/>
    </person>
    <person id="172" depart="516.00">
        <personTrip from="gneE13" to="gneE13" modes="public car"/>
    </person>
    <person id="173" depart="519.00">
        <personTrip from="gneE38" to="gneE16" modes="public car"/>
    </person>
    <person id="174" depart="522.00">
        <personTrip from="-gneE9" to="gneE41" modes="public car"/>
    </person>
    <person id="175" depart="525.00">
        <personTrip from="-gneE16" to="gneE45" modes="public car"/>
    </person>
    <person id="176" depart="528.00">
        <personTrip from="-gneE80" to="gneE64" modes="public car"/>
    </person>
    <person id="177" depart="531.00">
        <personTrip from="-gneE77" to="gneE46" modes="public car"/>
    </person>
    <person id="178" depart="534.00">
        <personTrip from="-gneE38" to="gneE29" modes="public car"/>
    </person>
    <person id="179" depart="537.00">
        <personTrip from="gneE54" to="gneE76" modes="public car"/>
    </person>
    <person id="180" depart="540.00">
        <personTrip from="-gneE32" to="-gneE5" modes="public car"/>
    </person>
    <person id="181" depart="543.00">
        <personTrip from="-gneE21" to="-gneE73" modes="public car"/>
    </person>
    <person id="182" depart="546.00">
        <personTrip from="-gneE30" to="gneE34" modes="public car"/>
    </person>
    <person id="183" depart="549.00">
        <personTrip from="gneE14" to="gneE35" modes="public car"/>
    </person>
    <person id="184" depart="552.00">
        <personTrip from="gneE38" to="gneE62" modes="public car"/>
    </person>
    <person id="185" depart="555.00">
        <personTrip from="gneE14" to="gneE35" modes="public car"/>
    </person>
    <person id="186" depart="558.00">
        <personTrip from="gneE21" to="gneE67" modes="public car"/>
    </person>
    <person id="187" depart="561.00">
        <personTrip from="-gneE76" to="gneE57" modes="public car"/>
    </person>
    <person id="188" depart="564.00">
        <personTrip from="-gneE3" to="-gneE51" modes="public car"/>
    </person>
    <person id="189" depart="567.00">
        <personTrip from="gneE17" to="-gneE50" modes="public car"/>
    </person>
    <person id="190" depart="570.00">
        <personTrip from="-gneE39" to="gneE47" modes="public car"/>
    </person>
    <person id="191" depart="573.00">
        <personTrip from="gneE12" to="gneE0" modes="public car"/>
    </person>
    <person id="192" depart="576.00">
        <personTrip from="-gneE76" to="-gneE21" modes="public car"/>
    </person>
    <person id="193" depart="579.00">
        <personTrip from="gneE65" to="-gneE21" modes="public car"/>
    </person>
    <person id="194" depart="582.00">
        <personTrip from="-gneE50" to="-gneE67" modes="public car"/>
    </person>
    <person id="195" depart="585.00">
        <personTrip from="-gneE8" to="gneE30" modes="public car"/>
    </person>
    <person id="196" depart="588.00">
        <personTrip from="gneE7" to="gneE51" modes="public car"/>
    </person>
    <person id="197" depart="591.00">
        <personTrip from="-gneE80" to="gneE73" modes="public car"/>
    </person>
    <person id="198" depart="594.00">
        <personTrip from="-gneE53" to="gneE32" modes="public car"/>
    </person>
    <person id="199" depart="597.00">
        <personTrip from="-gneE3" to="-gneE2" modes="public car"/>
    </person>
    <person id="200" depart="600.00">
        <personTrip from="gneE10" to="-gneE52" modes="public car"/>
    </person>
    <person id="201" depart="603.00">
        <personTrip from="gneE36" to="-gneE53" modes="public car"/>
    </person>
    <person id="202" depart="606.00">
        <personTrip from="gneE25" to="gneE26" modes="public car"/>
    </person>
    <person id="203" depart="609.00">
        <personTrip from="gneE8" to="-gneE30" modes="public car"/>
    </person>
    <person id="204" depart="612.00">
        <personTrip from="gneE10" to="gneE3" modes="public car"/>
    </person>
    <person id="205" depart="615.00">
        <personTrip from="gneE33" to="gneE47" modes="public car"/>
    </person>
    <person id="206" depart="618.00">
        <personTrip from="gneE47" to="-gneE57" modes="public car"/>
    </person>
    <person id="207" depart="621.00">
        <personTrip from="-gneE65" to="gneE25" modes="public car"/>
    </person>
    <person id="208" depart="624.00">
        <personTrip from="-gneE55" to="-gneE56" modes="public car"/>
    </person>
    <person id="209" depart="627.00">
        <personTrip from="-gneE70" to="-gneE55" modes="public car"/>
    </person>
    <person id="210" depart="630.00">
        <personTrip from="gneE43" to="-gneE16" modes="public car"/>
    </person>
    <person id="211" depart="633.00">
        <personTrip from="gneE41" to="-gneE56" modes="public car"/>
    </person>
    <person id="212" depart="636.00">
        <personTrip from="gneE15" to="-gneE30" modes="public car"/>
    </person>
    <person id="213" depart="639.00">
        <personTrip from="gneE9" to="-gneE68" modes="public car"/>
    </person>
    <person id="214" depart="642.00">
        <personTrip from="gneE17" to="gneE70" modes="public car"/>
    </person>
    <person id="215" depart="645.00">
        <personTrip from="-gneE9" to="gneE37" modes="public car"/>
    </person>
    <person id="216" depart="648.00">
        <personTrip from="-gneE67" to="gneE67" modes="public car"/>
    </person>
    <person id="217" depart="651.00">
        <personTrip from="gneE65" to="-gneE7" modes="public car"/>
    </person>
    <person id="218" depart="654.00">
        <personTrip from="-gneE45" to="gneE67" modes="public car"/>
    </person>
    <person id="219" depart="657.00">
        <personTrip from="gneE26" to="-gneE2" modes="public car"/>
    </person>
    <person id="220" depart="660.00">
        <personTrip from="-gneE51" to="-gneE7" modes="public car"/>
    </person>
    <person id="221" depart="663.00">
        <personTrip from="-gneE67" to="gneE15" modes="public car"/>
    </person>
    <person id="222" depart="666.00">
        <personTrip from="gneE67" to="-gneE53" modes="public car"/>
    </person>
    <person id="223" depart="669.00">
        <personTrip from="gneE8" to="-gneE0" modes="public car"/>
    </person>
    <person id="224" depart="672.00">
        <personTrip from="-gneE4" to="gneE12" modes="public car"/>
    </person>
    <person id="225" depart="675.00">
        <personTrip from="-gneE10" to="gneE11" modes="public car"/>
    </person>
    <person id="226" depart="678.00">
        <personTrip from="-gneE43" to="gneE53" modes="public car"/>
    </person>
    <person id="227" depart="681.00">
        <personTrip from="-gneE42" to="-gneE7" modes="public car"/>
    </person>
    <person id="228" depart="684.00">
        <personTrip from="gneE5" to="gneE64" modes="public car"/>
    </person>
    <person id="229" depart="687.00">
        <personTrip from="-gneE3" to="gneE53" modes="public car"/>
    </person>
    <person id="230" depart="690.00">
        <personTrip from="-gneE29" to="gneE57" modes="public car"/>
    </person>
    <person id="231" depart="693.00">
        <personTrip from="-gneE16" to="-gneE11" modes="public car"/>
    </person>
    <person id="232" depart="696.00">
        <personTrip from="gneE46" to="gneE66" modes="public car"/>
    </person>
    <person id="233" depart="699.00">
        <personTrip from="gneE19" to="gneE35" modes="public car"/>
    </person>
    <person id="234" depart="702.00">
        <personTrip from="-gneE55" to="gneE24" modes="public car"/>
    </person>
    <person id="235" depart="705.00">
        <personTrip from="gneE64" to="-gneE48" modes="public car"/>
    </person>
    <person id="236" depart="708.00">
        <personTrip from="-gneE59" to="gneE8" modes="public car"/>
    </person>
    <person id="237" depart="711.00">
        <personTrip from="gneE67" to="gneE68" modes="public car"/>
    </person>
    <person id="238" depart="714.00">
        <personTrip from="-gneE75" to="-gneE10" modes="public car"/>
    </person>
    <person id="239" depart="717.00">
        <personTrip from="gneE22" to="-gneE52" modes="public car"/>
    </person>
    <person id="240" depart="720.00">
        <personTrip from="gneE0" to="gneE11" modes="public car"/>
    </person>
    <person id="241" depart="723.00">
        <personTrip from="gneE29" to="gneE29" modes="public car"/>
    </person>
    <person id="242" depart="726.00">
        <personTrip from="gneE45" to="gneE78" modes="public car"/>
    </person>
    <person id="243" depart="729.00">
        <personTrip from="gneE15" to="-gneE67" modes="public car"/>
    </person>
    <person id="244" depart="732.00">
        <personTrip from="-gneE45" to="gneE21" modes="public car"/>
    </person>
    <person id="245" depart="735.00">
        <personTrip from="gneE51" to="-gneE3" modes="public car"/>
    </person>
    <person id="246" depart="738.00">
        <personTrip from="gneE49" to="-gneE52" modes="public car"/>
    </person>
    <person id="247" depart="741.00">