<edges>
    <edge from="1" id="1to2" to="2" />
    <edge from="2" id="2to1" to="1" />
    <edge from="2" id="2to3" to="3" numLanes="2" >
		<lane index="0" allow="bus"/>
		<lane index="1" disallow="bus"/>
    </edge>
    <edge from="3" id="3to2" to="2" />
    <edge from="3" id="3to4" to="4" />
    <edge from="4" id="4to3" to="3" />
    <edge from="5" id="5to2" to="2" />
    <edge from="2" id="2to5" to="5" />

    <tlLogic id="2" type="static" programID="0" offset="0">
        <phase duration="42" state="GGgGGggrrrr"/>
        <phase duration="3"  state="yyyyyyyrrrr"/>
        <phase duration="42" state="GrrrrrrGGGg"/>
        <phase duration="3"  state="yrrrrrryyyy"/>
    </tlLogic>
</edges>