<?xml version="1.0" encoding="UTF-8"?>

<!-- generated on 03/03/20 14:37:17 by Eclipse SUMO netconvert Version 1.5.0
<configuration xmlns:xsi="http://www.w3.org/2001/XMLSchema-instance" xsi:noNamespaceSchemaLocation="http://sumo.dlr.de/xsd/netconvertConfiguration.xsd">

    <input>
        <node-files value="hello.nod.xml"/>
        <edge-files value="hello.edg.xml"/>
    </input>

    <output>
        <output-file value="hello.net.xml"/>
    </output>

    <report>
        <aggregate-warnings value="5"/>
    </report>

</configuration>
-->

<net version="1.3" junctionCornerDetail="5" limitTurnSpeed="5.50" xmlns:xsi="http://www.w3.org/2001/XMLSchema-instance" xsi:noNamespaceSchemaLocation="http://sumo.dlr.de/xsd/net_file.xsd">

    <location netOffset="150.00,60.00" convBoundary="0.00,0.00,230.00,140.00" origBoundary="-150.00,-60.00,80.00,80.00" projParameter="!"/>

    <edge id=":1_0" function="internal">
        <lane id=":1_0_0" index="0" speed="3.65" length="4.67" shape="0.00,61.60 -1.20,60.80 -1.60,60.00 -1.20,59.20 0.00,58.40"/>
    </edge>
    <edge id=":2_0" function="internal">
        <lane id=":2_0_0" index="0" speed="7.68" length="11.20" shape="149.62,66.85 148.71,64.55 146.94,62.91 144.31,61.93 140.82,61.60"/>
    </edge>
    <edge id=":2_1" function="internal">
        <lane id=":2_1_0" index="0" speed="13.89" length="15.29" shape="149.62,66.85 148.75,63.16 147.54,59.51 146.09,55.94 144.46,52.51"/>
    </edge>
    <edge id=":2_2" function="internal">
        <lane id=":2_2_0" index="0" speed="3.65" length="2.34" shape="149.62,66.85 150.19,65.53 150.91,64.99"/>
    </edge>
    <edge id=":2_9" function="internal">
        <lane id=":2_9_0" index="0" speed="3.65" length="2.34" shape="150.91,64.99 151.77,65.24 152.77,66.28"/>
    </edge>
    <edge id=":2_3" function="internal">
        <lane id=":2_3_0" index="0" speed="13.89" length="16.19" shape="147.33,51.08 148.99,54.65 150.55,58.51 151.85,62.46 152.77,66.28"/>
    </edge>
    <edge id=":2_4" function="internal">
        <lane id=":2_4_0" index="0" speed="7.44" length="6.94" shape="147.33,51.08 148.89,55.68 148.54,57.73"/>
    </edge>
    <edge id=":2_5" function="internal">
        <lane id=":2_5_0" index="0" speed="3.65" length="2.34" shape="147.33,51.08 147.15,52.51 146.61,53.22"/>
    </edge>
    <edge id=":2_10" function="internal">
        <lane id=":2_10_0" index="0" speed="7.44" length="9.46" shape="148.54,57.73 148.33,58.97 145.64,60.94 140.82,61.60"/>
    </edge>
    <edge id=":2_11" function="internal">
        <lane id=":2_11_0" index="0" speed="3.65" length="2.34" shape="146.61,53.22 145.72,53.22 144.46,52.51"/>
    </edge>
    <edge id=":2_6" function="internal">
        <lane id=":2_6_0" index="0" speed="5.74" length="9.18" shape="140.82,58.40 143.52,58.03 145.03,56.93 145.34,55.09 144.46,52.51"/>
    </edge>
    <edge id=":2_7" function="internal">
        <lane id=":2_7_0" index="0" speed="8.99" length="15.69" shape="140.82,58.40 145.51,58.89 149.07,60.37 151.48,62.83 152.77,66.28"/>
    </edge>
    <edge id=":2_8" function="internal">
        <lane id=":2_8_0" index="0" speed="3.65" length="4.67" shape="140.82,58.40 142.02,59.20 142.42,60.00 142.02,60.80 140.82,61.60"/>
    </edge>
    <edge id=":3_0" function="internal">
        <lane id=":3_0_0" index="0" speed="6.30" length="5.04" shape="161.20,117.13 160.03,116.55 159.12,115.75 158.48,114.72 158.10,113.47"/>
    </edge>
    <edge id=":3_1" function="internal">
        <lane id=":3_1_0" index="0" speed="4.02" length="1.68" shape="161.24,112.89 161.37,113.31 161.59,113.65 161.89,113.92 162.28,114.12"/>
    </edge>
    <edge id=":4_0" function="internal">
        <lane id=":4_0_0" index="0" speed="3.65" length="4.67" shape="230.54,138.49 231.40,139.65 231.51,140.54 230.86,141.16 229.46,141.51"/>
    </edge>
    <edge id=":5_0" function="internal">
        <lane id=":5_0_0" index="0" speed="3.65" length="4.67" shape="118.57,0.72 118.75,-0.72 119.28,-1.43 120.18,-1.43 121.43,-0.72"/>
    </edge>

    <edge id="1to2" from="1" to="2" priority="-1">
        <lane id="1to2_0" index="0" speed="13.89" length="140.82" shape="0.00,58.40 140.82,58.40"/>
    </edge>
    <edge id="2to1" from="2" to="1" priority="-1">
        <lane id="2to1_0" index="0" speed="13.89" length="140.82" shape="140.82,61.60 0.00,61.60"/>
    </edge>
    <edge id="2to3" from="2" to="3" priority="-1">
        <lane id="2to3_0" index="0" speed="13.89" length="47.38" shape="152.77,66.28 161.24,112.89"/>
    </edge>
    <edge id="2to5" from="2" to="5" priority="-1">
        <lane id="2to5_0" index="0" speed="13.89" length="57.90" shape="144.46,52.51 118.57,0.72"/>
    </edge>
    <edge id="3to2" from="3" to="2" priority="-1">
        <lane id="3to2_0" index="0" speed="13.89" length="47.38" shape="158.10,113.47 149.62,66.85"/>
    </edge>
    <edge id="3to4" from="3" to="4" priority="-1">
        <lane id="3to4_0" index="0" speed="13.89" length="72.48" shape="162.28,114.12 230.54,138.49"/>
    </edge>
    <edge id="4to3" from="4" to="3" priority="-1">
        <lane id="4to3_0" index="0" speed="13.89" length="72.48" shape="229.46,141.51 161.20,117.13"/>
    </edge>
    <edge id="5to2" from="5" to="2" priority="-1">
        <lane id="5to2_0" index="0" speed="13.89" length="57.90" shape="121.43,-0.72 147.33,51.08"/>
    </edge>

    <junction id="1" type="priority" x="0.00" y="60.00" incLanes="2to1_0" intLanes=":1_0_0" shape="0.00,60.00 0.00,63.20 0.00,60.00">
        <request index="0" response="0" foes="0" cont="0"/>
    </junction>
    <junction id="2" type="priority" x="150.00" y="60.00" incLanes="3to2_0 5to2_0 1to2_0" intLanes=":2_0_0 :2_1_0 :2_9_0 :2_3_0 :2_10_0 :2_11_0 :2_6_0 :2_7_0 :2_8_0" shape="148.04,67.14 154.34,65.99 153.67,62.51 153.06,59.96 152.38,57.90 151.53,55.90 150.36,53.53 148.76,50.36 143.03,53.22 143.58,55.21 143.38,55.91 142.85,56.40 141.99,56.70 140.82,56.80 140.82,63.20 142.83,63.31 144.52,63.64 145.88,64.18 146.92,64.95 147.65,65.93">
        <request index="0" response="000000000" foes="100010000" cont="0"/>
        <request index="1" response="000000000" foes="011110000" cont="0"/>
        <request index="2" response="010001000" foes="010001000" cont="1"/>
        <request index="3" response="000000000" foes="010000100" cont="0"/>
        <request index="4" response="000000011" foes="110000011" cont="1"/>
        <request index="5" response="001000010" foes="001000010" cont="1"/>
        <request index="6" response="000000010" foes="000100010" cont="0"/>
        <request index="7" response="000011010" foes="000011110" cont="0"/>
        <request index="8" response="000010001" foes="000010001" cont="0"/>
    </junction>
    <junction id="3" type="priority" x="160.00" y="115.00" incLanes="4to3_0 2to3_0" intLanes=":3_0_0 :3_1_0" shape="160.67,118.64 162.82,112.61 156.52,113.75 157.28,115.91 157.89,116.79 158.66,117.54 159.58,118.15">
        <request index="0" response="00" foes="00" cont="0"/>
        <request index="1" response="00" foes="00" cont="0"/>
    </junction>
    <junction id="4" type="priority" x="230.00" y="140.00" incLanes="3to4_0" intLanes=":4_0_0" shape="230.00,140.00 231.08,136.99 230.00,140.00">
        <request index="0" response="0" foes="0" cont="0"/>
    </junction>
    <junction id="5" type="priority" x="120.00" y="0.00" incLanes="2to5_0" intLanes=":5_0_0" shape="120.00,0.00 117.14,1.43 120.00,0.00">
        <request index="0" response="0" foes="0" cont="0"/>
    </junction>

    <junction id=":2_9_0" type="internal" x="150.91" y="64.99" incLanes=":2_2_0 1to2_0 5to2_0" intLanes=":2_3_0 :2_7_0"/>
    <junction id=":2_10_0" type="internal" x="148.54" y="57.73" incLanes=":2_4_0 3to2_0" intLanes=":2_0_0 :2_1_0 :2_7_0 :2_8_0"/>
    <junction id=":2_11_0" type="internal" x="146.61" y="53.22" incLanes=":2_5_0 1to2_0 3to2_0" intLanes=":2_1_0 :2_6_0"/>

    <connection from="1to2" to="2to5" fromLane="0" toLane="0" via=":2_6_0" dir="r" state="m"/>
    <connection from="1to2" to="2to3" fromLane="0" toLane="0" via=":2_7_0" dir="l" state="m"/>
    <connection from="1to2" to="2to1" fromLane="0" toLane="0" via=":2_8_0" dir="t" state="m"/>
    <connection from="2to1" to="1to2" fromLane="0" toLane="0" via=":1_0_0" dir="t" state="M"/>
    <connection from="2to3" to="3to4" fromLane="0" toLane="0" via=":3_1_0" dir="r" state="M"/>
    <connection from="2to5" to="5to2" fromLane="0" toLane="0" via=":5_0_0" dir="t" state="M"/>
    <connection from="3to2" to="2to1" fromLane="0" toLane="0" via=":2_0_0" dir="r" state="M"/>
    <connection from="3to2" to="2to5" fromLane="0" toLane="0" via=":2_1_0" dir="s" state="M"/>
    <connection from="3to2" to="2to3" fromLane="0" toLane="0" via=":2_2_0" dir="t" state="m"/>
    <connection from="3to4" to="4to3" fromLane="0" toLane="0" via=":4_0_0" dir="t" state="M"/>
    <connection from="4to3" to="3to2" fromLane="0" toLane="0" via=":3_0_0" dir="l" state="M"/>
    <connection from="5to2" to="2to3" fromLane="0" toLane="0" via=":2_3_0" dir="s" state="M"/>
    <connection from="5to2" to="2to1" fromLane="0" toLane="0" via=":2_4_0" dir="l" state="m"/>
    <connection from="5to2" to="2to5" fromLane="0" toLane="0" via=":2_5_0" dir="t" state="m"/>

    <connection from=":1_0" to="1to2" fromLane="0" toLane="0" dir="t" state="M"/>
    <connection from=":2_0" to="2to1" fromLane="0" toLane="0" dir="r" state="M"/>
    <connection from=":2_1" to="2to5" fromLane="0" toLane="0" dir="s" state="M"/>
    <connection from=":2_2" to="2to3" fromLane="0" toLane="0" via=":2_9_0" dir="t" state="m"/>
    <connection from=":2_9" to="2to3" fromLane="0" toLane="0" dir="t" state="M"/>
    <connection from=":2_3" to="2to3" fromLane="0" toLane="0" dir="s" state="M"/>
    <connection from=":2_4" to="2to1" fromLane="0" toLane="0" via=":2_10_0" dir="l" state="m"/>
    <connection from=":2_10" to="2to1" fromLane="0" toLane="0" dir="l" state="M"/>
    <connection from=":2_5" to="2to5" fromLane="0" toLane="0" via=":2_11_0" dir="t" state="m"/>
    <connection from=":2_11" to="2to5" fromLane="0" toLane="0" dir="t" state="M"/>
    <connection from=":2_6" to="2to5" fromLane="0" toLane="0" dir="r" state="M"/>
    <connection from=":2_7" to="2to3" fromLane="0" toLane="0" dir="l" state="M"/>
    <connection from=":2_8" to="2to1" fromLane="0" toLane="0" dir="t" state="M"/>
    <connection from=":3_0" to="3to2" fromLane="0" toLane="0" dir="l" state="M"/>
    <connection from=":3_1" to="3to4" fromLane="0" toLane="0" dir="r" state="M"/>
    <connection from=":4_0" to="4to3" fromLane="0" toLane="0" dir="t" state="M"/>
    <connection from=":5_0" to="5to2" fromLane="0" toLane="0" dir="t" state="M"/>

</net>
